
OS:Version,
  {730d9fdd-0cce-4074-806f-943951f70b7b}, !- Handle
  3.0.1;                                  !- Version Identifier

OS:Building,
  {b94f93bd-ba80-48fd-9183-3ce67f808545}, !- Handle
  Building 1,                             !- Name
  ,                                       !- Building Sector Type
  -0,                                     !- North Axis {deg}
  ,                                       !- Nominal Floor to Floor Height {m}
  ,                                       !- Space Type Name
  {6700049c-0ccc-4ae6-93ab-34747746721b}, !- Default Construction Set Name
  ,                                       !- Default Schedule Set Name
  ,                                       !- Standards Number of Stories
  ,                                       !- Standards Number of Above Ground Stories
  ,                                       !- Standards Template
  MediumOffice;                           !- Standards Building Type

OS:Facility,
  {f183428b-bbd9-411a-bda8-a879590a8ce4}; !- Handle

OS:Site,
  {62778f72-0543-4a5d-9fc6-84a39e4b9da1}, !- Handle
  Site 1,                                 !- Name
  ,                                       !- Latitude {deg}
  ,                                       !- Longitude {deg}
  ,                                       !- Time Zone {hr}
  ,                                       !- Elevation {m}
  City;                                   !- Terrain

OS:SimulationControl,
  {b7027ce1-65f7-4265-89c2-16704636e540}, !- Handle
  Yes,                                    !- Do Zone Sizing Calculation
  Yes,                                    !- Do System Sizing Calculation
  Yes,                                    !- Do Plant Sizing Calculation
  No,                                     !- Run Simulation for Sizing Periods
  Yes,                                    !- Run Simulation for Weather File Run Periods
  ,                                       !- Loads Convergence Tolerance Value {W}
  ,                                       !- Temperature Convergence Tolerance Value {deltaC}
  FullExteriorWithReflections;            !- Solar Distribution

OS:Sizing:Parameters,
  {119cdc0f-e050-4200-b058-1d2491b76c56}, !- Handle
  1.25,                                   !- Heating Sizing Factor
  1.15;                                   !- Cooling Sizing Factor

OS:Timestep,
  {675ab42b-7a11-4293-85b5-fd0dd96cc5a8}, !- Handle
  6;                                      !- Number of Timesteps per Hour

OS:ShadowCalculation,
  {360326c3-5854-4a68-9519-f4fb2d900c9b}, !- Handle
  PolygonClipping,                        !- Shading Calculation Method
  Periodic,                               !- Shading Calculation Update Frequency Method
  30,                                     !- Shading Calculation Update Frequency
  15000,                                  !- Maximum Figures in Shadow Overlap Calculations
  ,                                       !- Polygon Clipping Algorithm
  512,                                    !- Pixel Counting Resolution
  ,                                       !- Sky Diffuse Modeling Algorithm
  No,                                     !- Output External Shading Calculation Results
  No,                                     !- Disable Self-Shading Within Shading Zone Groups
  No;                                     !- Disable Self-Shading From Shading Zone Groups to Other Zones

OS:HeatBalanceAlgorithm,
  {252f3162-6e76-4933-bb46-d0424db6d434}, !- Handle
  ConductionTransferFunction,             !- Algorithm
  200;                                    !- Surface Temperature Upper Limit {C}

OS:RunPeriod,
  {b905d94e-4f17-405c-93fb-3554c33cdc83}, !- Handle
  Run Period 1,                           !- Name
  1,                                      !- Begin Month
  1,                                      !- Begin Day of Month
  1,                                      !- End Month
  31,                                     !- End Day of Month
  ,                                       !- Use Weather File Holidays and Special Days
  ,                                       !- Use Weather File Daylight Saving Period
  ,                                       !- Apply Weekend Holiday Rule
  ,                                       !- Use Weather File Rain Indicators
  ,                                       !- Use Weather File Snow Indicators
  ;                                       !- Number of Times Runperiod to be Repeated

OS:LifeCycleCost:Parameters,
  {c00a41dc-210b-49c2-a0ed-be49dac8d813}, !- Handle
  ,                                       !- Analysis Type
  ,                                       !- Discounting Convention
  ,                                       !- Inflation Approach
  ,                                       !- Real Discount Rate
  ,                                       !- Nominal Discount Rate
  ,                                       !- Inflation
  ,                                       !- Base Date Month
  ,                                       !- Base Date Year
  ,                                       !- Service Date Month
  ,                                       !- Service Date Year
  ;                                       !- Length of Study Period in Years

OS:WeatherFile,
  {d8af5dfa-33ba-4dfd-943b-2ee406684a0c}, !- Handle
  Boston Logan IntL Arpt,                 !- City
  MA,                                     !- State Province Region
  USA,                                    !- Country
  TMY3,                                   !- Data Source
  725090,                                 !- WMO Number
  42.37,                                  !- Latitude {deg}
  -71.02,                                 !- Longitude {deg}
  -5,                                     !- Time Zone {hr}
  6,                                      !- Elevation {m}
  C:/Users/Administrator/ladybug_tools/resources/weather/USA_MA_Boston-Logan.Intl.AP.725090_TMY3/USA_MA_Boston-Logan.Intl.AP.725090_TMY3.epw, !- Url
  B65824C3;                               !- Checksum

OS:ScheduleTypeLimits,
  {7bf2db38-fb98-4f82-84ff-f557871185b6}, !- Handle
  Temperature,                            !- Name
  -273.15,                                !- Lower Limit Value
  ,                                       !- Upper Limit Value
  Continuous,                             !- Numeric Type
  Temperature;                            !- Unit Type

OS:ScheduleTypeLimits,
  {4283f9c0-7618-4c36-b59f-098261c0cd50}, !- Handle
  Activity Level,                         !- Name
  0,                                      !- Lower Limit Value
  ,                                       !- Upper Limit Value
  Continuous,                             !- Numeric Type
  ActivityLevel;                          !- Unit Type

OS:ScheduleTypeLimits,
  {cfa1aa58-ea95-4cb0-8cd0-eaf689e101e9}, !- Handle
  Fractional,                             !- Name
  0,                                      !- Lower Limit Value
  1,                                      !- Upper Limit Value
  Continuous,                             !- Numeric Type
  Dimensionless;                          !- Unit Type

OS:Schedule:Ruleset,
  {d0fe419c-3336-4044-ae00-55f115b609b3}, !- Handle
  Generic Office Infiltration,            !- Name
  {cfa1aa58-ea95-4cb0-8cd0-eaf689e101e9}, !- Schedule Type Limits Name
  {5ff3e56d-33ff-4b10-8ac7-d1e41a1f7810}, !- Default Day Schedule Name
  {537e088b-996f-4d14-8be8-35df7a70fe8e}, !- Summer Design Day Schedule Name
  {ff5e9d6b-08ac-4fea-a342-944f5b50bb15}, !- Winter Design Day Schedule Name
  {7a470778-33d9-4631-80f9-333bcf90b977}; !- Holiday Schedule Name

OS:Schedule:Day,
  {5ff3e56d-33ff-4b10-8ac7-d1e41a1f7810}, !- Handle
  Schedule Day 1,                         !- Name
  {cfa1aa58-ea95-4cb0-8cd0-eaf689e101e9}, !- Schedule Type Limits Name
  ,                                       !- Interpolate to Timestep
  24,                                     !- Hour 1
  0,                                      !- Minute 1
  1;                                      !- Value Until Time 1

OS:Schedule:Day,
  {26f8866c-d656-4806-b572-6acd6d49e4fd}, !- Handle
  OfficeMedium INFIL_SCH_PNNL_Default,    !- Name
  {cfa1aa58-ea95-4cb0-8cd0-eaf689e101e9}, !- Schedule Type Limits Name
  ,                                       !- Interpolate to Timestep
  24,                                     !- Hour 1
  0,                                      !- Minute 1
  1;                                      !- Value Until Time 1

OS:Schedule:Day,
  {b5abe1e1-bb18-43a0-9a72-e626a39ed004}, !- Handle
  OfficeMedium INFIL_SCH_PNNL_Wkdy_SmrDsn, !- Name
  {cfa1aa58-ea95-4cb0-8cd0-eaf689e101e9}, !- Schedule Type Limits Name
  ,                                       !- Interpolate to Timestep
  6,                                      !- Hour 1
  0,                                      !- Minute 1
  1,                                      !- Value Until Time 1
  22,                                     !- Hour 2
  0,                                      !- Minute 2
  0.25,                                   !- Value Until Time 2
  24,                                     !- Hour 3
  0,                                      !- Minute 3
  1;                                      !- Value Until Time 3

OS:Schedule:Day,
  {eef57ac5-90e9-4ce3-96b1-88bdabcd090d}, !- Handle
  OfficeMedium INFIL_SCH_PNNL_Sat_WntrDsn, !- Name
  {cfa1aa58-ea95-4cb0-8cd0-eaf689e101e9}, !- Schedule Type Limits Name
  ,                                       !- Interpolate to Timestep
  6,                                      !- Hour 1
  0,                                      !- Minute 1
  1,                                      !- Value Until Time 1
  18,                                     !- Hour 2
  0,                                      !- Minute 2
  0.25,                                   !- Value Until Time 2
  24,                                     !- Hour 3
  0,                                      !- Minute 3
  1;                                      !- Value Until Time 3

OS:Schedule:Day,
  {cee79c74-583d-46c6-a9a1-ec798f513bf9}, !- Handle
  OfficeMedium INFIL_SCH_PNNL_Wkdy,       !- Name
  {cfa1aa58-ea95-4cb0-8cd0-eaf689e101e9}, !- Schedule Type Limits Name
  ,                                       !- Interpolate to Timestep
  6,                                      !- Hour 1
  0,                                      !- Minute 1
  1,                                      !- Value Until Time 1
  22,                                     !- Hour 2
  0,                                      !- Minute 2
  0.25,                                   !- Value Until Time 2
  24,                                     !- Hour 3
  0,                                      !- Minute 3
  1;                                      !- Value Until Time 3

OS:Schedule:Day,
  {06e848ef-2fde-4704-b910-ce0c2fbf69fa}, !- Handle
  OfficeMedium INFIL_SCH_PNNL_Sat,        !- Name
  {cfa1aa58-ea95-4cb0-8cd0-eaf689e101e9}, !- Schedule Type Limits Name
  ,                                       !- Interpolate to Timestep
  6,                                      !- Hour 1
  0,                                      !- Minute 1
  1,                                      !- Value Until Time 1
  18,                                     !- Hour 2
  0,                                      !- Minute 2
  0.25,                                   !- Value Until Time 2
  24,                                     !- Hour 3
  0,                                      !- Minute 3
  1;                                      !- Value Until Time 3

OS:Schedule:Day,
  {7a470778-33d9-4631-80f9-333bcf90b977}, !- Handle
  OfficeMedium INFIL_SCH_PNNL_Default 1,  !- Name
  {cfa1aa58-ea95-4cb0-8cd0-eaf689e101e9}, !- Schedule Type Limits Name
  ,                                       !- Interpolate to Timestep
  24,                                     !- Hour 1
  0,                                      !- Minute 1
  1;                                      !- Value Until Time 1

OS:Schedule:Day,
  {537e088b-996f-4d14-8be8-35df7a70fe8e}, !- Handle
  OfficeMedium INFIL_SCH_PNNL_Wkdy_SmrDsn 1, !- Name
  {cfa1aa58-ea95-4cb0-8cd0-eaf689e101e9}, !- Schedule Type Limits Name
  ,                                       !- Interpolate to Timestep
  6,                                      !- Hour 1
  0,                                      !- Minute 1
  1,                                      !- Value Until Time 1
  22,                                     !- Hour 2
  0,                                      !- Minute 2
  0.25,                                   !- Value Until Time 2
  24,                                     !- Hour 3
  0,                                      !- Minute 3
  1;                                      !- Value Until Time 3

OS:Schedule:Day,
  {ff5e9d6b-08ac-4fea-a342-944f5b50bb15}, !- Handle
  OfficeMedium INFIL_SCH_PNNL_Sat_WntrDsn 1, !- Name
  {cfa1aa58-ea95-4cb0-8cd0-eaf689e101e9}, !- Schedule Type Limits Name
  ,                                       !- Interpolate to Timestep
  6,                                      !- Hour 1
  0,                                      !- Minute 1
  1,                                      !- Value Until Time 1
  18,                                     !- Hour 2
  0,                                      !- Minute 2
  0.25,                                   !- Value Until Time 2
  24,                                     !- Hour 3
  0,                                      !- Minute 3
  1;                                      !- Value Until Time 3

OS:Schedule:Rule,
  {e56418fe-2534-47cc-bd0b-c6036bb10690}, !- Handle
  Schedule Rule 1,                        !- Name
  {d0fe419c-3336-4044-ae00-55f115b609b3}, !- Schedule Ruleset Name
  0,                                      !- Rule Order
  {4719a5c6-1b03-416b-8cd9-8ce662a69773}, !- Day Schedule Name
  No,                                     !- Apply Sunday
  Yes,                                    !- Apply Monday
  Yes,                                    !- Apply Tuesday
  Yes,                                    !- Apply Wednesday
  Yes,                                    !- Apply Thursday
  Yes,                                    !- Apply Friday
  No,                                     !- Apply Saturday
  DateRange,                              !- Date Specification Type
  1,                                      !- Start Month
  1,                                      !- Start Day
  12,                                     !- End Month
  31;                                     !- End Day

OS:Schedule:Day,
  {4719a5c6-1b03-416b-8cd9-8ce662a69773}, !- Handle
  Schedule Day 2,                         !- Name
  {cfa1aa58-ea95-4cb0-8cd0-eaf689e101e9}, !- Schedule Type Limits Name
  ,                                       !- Interpolate to Timestep
  6,                                      !- Hour 1
  0,                                      !- Minute 1
  1,                                      !- Value Until Time 1
  22,                                     !- Hour 2
  0,                                      !- Minute 2
  0.25,                                   !- Value Until Time 2
  24,                                     !- Hour 3
  0,                                      !- Minute 3
  1;                                      !- Value Until Time 3

OS:YearDescription,
  {9ec5e7ab-d3b7-4466-9a5a-38d04abbac11}, !- Handle
  ,                                       !- Calendar Year
  Sunday;                                 !- Day of Week for Start Day

OS:Schedule:Rule,
  {42c49411-c9e0-465e-aef2-74d5182d3e0f}, !- Handle
  Schedule Rule 2,                        !- Name
  {d0fe419c-3336-4044-ae00-55f115b609b3}, !- Schedule Ruleset Name
  1,                                      !- Rule Order
  {c25d1be7-f4f9-48ff-b03b-0cf18de47a64}, !- Day Schedule Name
  No,                                     !- Apply Sunday
  No,                                     !- Apply Monday
  No,                                     !- Apply Tuesday
  No,                                     !- Apply Wednesday
  No,                                     !- Apply Thursday
  No,                                     !- Apply Friday
  Yes,                                    !- Apply Saturday
  DateRange,                              !- Date Specification Type
  1,                                      !- Start Month
  1,                                      !- Start Day
  12,                                     !- End Month
  31;                                     !- End Day

OS:Schedule:Day,
  {c25d1be7-f4f9-48ff-b03b-0cf18de47a64}, !- Handle
  Schedule Day 3,                         !- Name
  {cfa1aa58-ea95-4cb0-8cd0-eaf689e101e9}, !- Schedule Type Limits Name
  ,                                       !- Interpolate to Timestep
  6,                                      !- Hour 1
  0,                                      !- Minute 1
  1,                                      !- Value Until Time 1
  18,                                     !- Hour 2
  0,                                      !- Minute 2
  0.25,                                   !- Value Until Time 2
  24,                                     !- Hour 3
  0,                                      !- Minute 3
  1;                                      !- Value Until Time 3

OS:Schedule:Ruleset,
  {b420e155-d570-430e-9808-47d7e6706381}, !- Handle
  Generic Office Heating,                 !- Name
  {7bf2db38-fb98-4f82-84ff-f557871185b6}, !- Schedule Type Limits Name
  {bca3568e-7978-4299-bd70-d048e04fe8eb}, !- Default Day Schedule Name
  {88a97d03-647d-457d-b4dc-5b6823d93515}, !- Summer Design Day Schedule Name
  {a75d6c71-3787-418c-b63b-1b1fb3ec34bb}, !- Winter Design Day Schedule Name
  {4b11ebb2-a05b-40e4-a90a-4c0fc567f935}; !- Holiday Schedule Name

OS:Schedule:Day,
  {bca3568e-7978-4299-bd70-d048e04fe8eb}, !- Handle
  Schedule Day 4,                         !- Name
  {7bf2db38-fb98-4f82-84ff-f557871185b6}, !- Schedule Type Limits Name
  ,                                       !- Interpolate to Timestep
  24,                                     !- Hour 1
  0,                                      !- Minute 1
  15.6;                                   !- Value Until Time 1

OS:Schedule:Day,
  {b1701d39-109f-430b-b78f-82bdc5a0bbc7}, !- Handle
  OfficeMedium HTGSETP_SCH_YES_OPTIMUM_Default, !- Name
  {7bf2db38-fb98-4f82-84ff-f557871185b6}, !- Schedule Type Limits Name
  ,                                       !- Interpolate to Timestep
  24,                                     !- Hour 1
  0,                                      !- Minute 1
  15.6;                                   !- Value Until Time 1

OS:Schedule:Day,
  {246479ab-ccbc-443f-b6d3-966c94ff431b}, !- Handle
  OfficeMedium HTGSETP_SCH_YES_OPTIMUM_Default_SmrDsn, !- Name
  {7bf2db38-fb98-4f82-84ff-f557871185b6}, !- Schedule Type Limits Name
  ,                                       !- Interpolate to Timestep
  24,                                     !- Hour 1
  0,                                      !- Minute 1
  15.6;                                   !- Value Until Time 1

OS:Schedule:Day,
  {8c4b5a9d-02eb-4b57-b9be-0d6663be371b}, !- Handle
  OfficeMedium HTGSETP_SCH_YES_OPTIMUM_WntrDsn, !- Name
  {7bf2db38-fb98-4f82-84ff-f557871185b6}, !- Schedule Type Limits Name
  ,                                       !- Interpolate to Timestep
  5,                                      !- Hour 1
  0,                                      !- Minute 1
  15.6,                                   !- Value Until Time 1
  6,                                      !- Hour 2
  0,                                      !- Minute 2
  17.6,                                   !- Value Until Time 2
  7,                                      !- Hour 3
  0,                                      !- Minute 3
  19.6,                                   !- Value Until Time 3
  22,                                     !- Hour 4
  0,                                      !- Minute 4
  21,                                     !- Value Until Time 4
  24,                                     !- Hour 5
  0,                                      !- Minute 5
  15.6;                                   !- Value Until Time 5

OS:Schedule:Day,
  {2378ffb2-cb55-4823-92a1-72d77871436e}, !- Handle
  OfficeMedium HTGSETP_SCH_YES_OPTIMUM_Wkdy, !- Name
  {7bf2db38-fb98-4f82-84ff-f557871185b6}, !- Schedule Type Limits Name
  ,                                       !- Interpolate to Timestep
  5,                                      !- Hour 1
  0,                                      !- Minute 1
  15.6,                                   !- Value Until Time 1
  6,                                      !- Hour 2
  0,                                      !- Minute 2
  17.8,                                   !- Value Until Time 2
  7,                                      !- Hour 3
  0,                                      !- Minute 3
  20,                                     !- Value Until Time 3
  22,                                     !- Hour 4
  0,                                      !- Minute 4
  21,                                     !- Value Until Time 4
  24,                                     !- Hour 5
  0,                                      !- Minute 5
  15.6;                                   !- Value Until Time 5

OS:Schedule:Day,
  {2e03c965-cf67-4226-b4f4-3d4759484db3}, !- Handle
  OfficeMedium HTGSETP_SCH_YES_OPTIMUM_Sat, !- Name
  {7bf2db38-fb98-4f82-84ff-f557871185b6}, !- Schedule Type Limits Name
  ,                                       !- Interpolate to Timestep
  5,                                      !- Hour 1
  0,                                      !- Minute 1
  15.6,                                   !- Value Until Time 1
  6,                                      !- Hour 2
  0,                                      !- Minute 2
  17.8,                                   !- Value Until Time 2
  7,                                      !- Hour 3
  0,                                      !- Minute 3
  20,                                     !- Value Until Time 3
  17,                                     !- Hour 4
  0,                                      !- Minute 4
  21,                                     !- Value Until Time 4
  24,                                     !- Hour 5
  0,                                      !- Minute 5
  15.6;                                   !- Value Until Time 5

OS:Schedule:Day,
  {4b11ebb2-a05b-40e4-a90a-4c0fc567f935}, !- Handle
  OfficeMedium HTGSETP_SCH_YES_OPTIMUM_Default 1, !- Name
  {7bf2db38-fb98-4f82-84ff-f557871185b6}, !- Schedule Type Limits Name
  ,                                       !- Interpolate to Timestep
  24,                                     !- Hour 1
  0,                                      !- Minute 1
  15.6;                                   !- Value Until Time 1

OS:Schedule:Day,
  {88a97d03-647d-457d-b4dc-5b6823d93515}, !- Handle
  OfficeMedium HTGSETP_SCH_YES_OPTIMUM_Default_SmrDsn 1, !- Name
  {7bf2db38-fb98-4f82-84ff-f557871185b6}, !- Schedule Type Limits Name
  ,                                       !- Interpolate to Timestep
  24,                                     !- Hour 1
  0,                                      !- Minute 1
  15.6;                                   !- Value Until Time 1

OS:Schedule:Day,
  {a75d6c71-3787-418c-b63b-1b1fb3ec34bb}, !- Handle
  OfficeMedium HTGSETP_SCH_YES_OPTIMUM_WntrDsn 1, !- Name
  {7bf2db38-fb98-4f82-84ff-f557871185b6}, !- Schedule Type Limits Name
  ,                                       !- Interpolate to Timestep
  5,                                      !- Hour 1
  0,                                      !- Minute 1
  15.6,                                   !- Value Until Time 1
  6,                                      !- Hour 2
  0,                                      !- Minute 2
  17.6,                                   !- Value Until Time 2
  7,                                      !- Hour 3
  0,                                      !- Minute 3
  19.6,                                   !- Value Until Time 3
  22,                                     !- Hour 4
  0,                                      !- Minute 4
  21,                                     !- Value Until Time 4
  24,                                     !- Hour 5
  0,                                      !- Minute 5
  15.6;                                   !- Value Until Time 5

OS:Schedule:Rule,
  {7d7c0987-80c5-4970-8620-742b15308a09}, !- Handle
  Schedule Rule 3,                        !- Name
  {b420e155-d570-430e-9808-47d7e6706381}, !- Schedule Ruleset Name
  0,                                      !- Rule Order
  {f2c1ddfe-f5e6-4f20-ab77-3424d24fc250}, !- Day Schedule Name
  No,                                     !- Apply Sunday
  Yes,                                    !- Apply Monday
  Yes,                                    !- Apply Tuesday
  Yes,                                    !- Apply Wednesday
  Yes,                                    !- Apply Thursday
  Yes,                                    !- Apply Friday
  No,                                     !- Apply Saturday
  DateRange,                              !- Date Specification Type
  1,                                      !- Start Month
  1,                                      !- Start Day
  12,                                     !- End Month
  31;                                     !- End Day

OS:Schedule:Day,
  {f2c1ddfe-f5e6-4f20-ab77-3424d24fc250}, !- Handle
  Schedule Day 5,                         !- Name
  {7bf2db38-fb98-4f82-84ff-f557871185b6}, !- Schedule Type Limits Name
  ,                                       !- Interpolate to Timestep
  5,                                      !- Hour 1
  0,                                      !- Minute 1
  15.6,                                   !- Value Until Time 1
  6,                                      !- Hour 2
  0,                                      !- Minute 2
  17.8,                                   !- Value Until Time 2
  7,                                      !- Hour 3
  0,                                      !- Minute 3
  20,                                     !- Value Until Time 3
  22,                                     !- Hour 4
  0,                                      !- Minute 4
  21,                                     !- Value Until Time 4
  24,                                     !- Hour 5
  0,                                      !- Minute 5
  15.6;                                   !- Value Until Time 5

OS:Schedule:Rule,
  {780a7bd3-01b1-458e-8020-22c74c9b3e38}, !- Handle
  Schedule Rule 4,                        !- Name
  {b420e155-d570-430e-9808-47d7e6706381}, !- Schedule Ruleset Name
  1,                                      !- Rule Order
  {cbf8bdf8-42ef-4ad1-9fe1-61e924f9354e}, !- Day Schedule Name
  No,                                     !- Apply Sunday
  No,                                     !- Apply Monday
  No,                                     !- Apply Tuesday
  No,                                     !- Apply Wednesday
  No,                                     !- Apply Thursday
  No,                                     !- Apply Friday
  Yes,                                    !- Apply Saturday
  DateRange,                              !- Date Specification Type
  1,                                      !- Start Month
  1,                                      !- Start Day
  12,                                     !- End Month
  31;                                     !- End Day

OS:Schedule:Day,
  {cbf8bdf8-42ef-4ad1-9fe1-61e924f9354e}, !- Handle
  Schedule Day 6,                         !- Name
  {7bf2db38-fb98-4f82-84ff-f557871185b6}, !- Schedule Type Limits Name
  ,                                       !- Interpolate to Timestep
  5,                                      !- Hour 1
  0,                                      !- Minute 1
  15.6,                                   !- Value Until Time 1
  6,                                      !- Hour 2
  0,                                      !- Minute 2
  17.8,                                   !- Value Until Time 2
  7,                                      !- Hour 3
  0,                                      !- Minute 3
  20,                                     !- Value Until Time 3
  17,                                     !- Hour 4
  0,                                      !- Minute 4
  21,                                     !- Value Until Time 4
  24,                                     !- Hour 5
  0,                                      !- Minute 5
  15.6;                                   !- Value Until Time 5

OS:Schedule:Ruleset,
  {73552708-62c9-4257-8138-abbfeb4148a1}, !- Handle
  Generic Office Equipment,               !- Name
  {cfa1aa58-ea95-4cb0-8cd0-eaf689e101e9}, !- Schedule Type Limits Name
  {56c9c67b-456f-4323-9d5f-db443be330c0}, !- Default Day Schedule Name
  {f8fd13a9-f43f-42dc-8281-3d5b1f629289}, !- Summer Design Day Schedule Name
  {4c3e337f-7932-4942-b919-1a5d0c5feef8}, !- Winter Design Day Schedule Name
  {f874400d-7040-4922-9152-e5a8eed4d47f}; !- Holiday Schedule Name

OS:Schedule:Day,
  {56c9c67b-456f-4323-9d5f-db443be330c0}, !- Handle
  Schedule Day 7,                         !- Name
  {cfa1aa58-ea95-4cb0-8cd0-eaf689e101e9}, !- Schedule Type Limits Name
  ,                                       !- Interpolate to Timestep