
OS:Version,
  {7a0585dc-b1ad-495a-9b20-22c5e0d5fa65}, !- Handle
  3.0.1;                                  !- Version Identifier

OS:Building,
  {5ef13a23-8258-43ed-8276-32275d6334c4}, !- Handle
  Building 1,                             !- Name
  ,                                       !- Building Sector Type
  -0,                                     !- North Axis {deg}
  ,                                       !- Nominal Floor to Floor Height {m}
  ,                                       !- Space Type Name
  {f2d2f56b-4a64-4a49-8855-11e83d66f767}, !- Default Construction Set Name
  ,                                       !- Default Schedule Set Name
  ,                                       !- Standards Number of Stories
  ,                                       !- Standards Number of Above Ground Stories
  ,                                       !- Standards Template
  MediumOffice;                           !- Standards Building Type

OS:Facility,
  {234a6f1c-b524-4ca9-999a-8106dbd06c02}; !- Handle

OS:Site,
  {01756c87-d1c7-4bc7-844f-9fc086acdd97}, !- Handle
  Site 1,                                 !- Name
  ,                                       !- Latitude {deg}
  ,                                       !- Longitude {deg}
  ,                                       !- Time Zone {hr}
  ,                                       !- Elevation {m}
  City;                                   !- Terrain

OS:SimulationControl,
  {724acdf1-b6d4-465f-8fa0-371467cd909a}, !- Handle
  Yes,                                    !- Do Zone Sizing Calculation
  Yes,                                    !- Do System Sizing Calculation
  Yes,                                    !- Do Plant Sizing Calculation
  No,                                     !- Run Simulation for Sizing Periods
  Yes,                                    !- Run Simulation for Weather File Run Periods
  ,                                       !- Loads Convergence Tolerance Value {W}
  ,                                       !- Temperature Convergence Tolerance Value {deltaC}
  FullExteriorWithReflections;            !- Solar Distribution

OS:Sizing:Parameters,
  {033ac56d-edcb-4142-925f-279c5e006014}, !- Handle
  1.25,                                   !- Heating Sizing Factor
  1.15;                                   !- Cooling Sizing Factor

OS:Timestep,
  {c57ad4b6-5e54-4e36-b874-d6e82c463c25}, !- Handle
  6;                                      !- Number of Timesteps per Hour

OS:ShadowCalculation,
  {2de0b7ae-0d85-4294-92ee-7dece1123e81}, !- Handle
  PolygonClipping,                        !- Shading Calculation Method
  Periodic,                               !- Shading Calculation Update Frequency Method
  30,                                     !- Shading Calculation Update Frequency
  15000,                                  !- Maximum Figures in Shadow Overlap Calculations
  ,                                       !- Polygon Clipping Algorithm
  512,                                    !- Pixel Counting Resolution
  ,                                       !- Sky Diffuse Modeling Algorithm
  No,                                     !- Output External Shading Calculation Results
  No,                                     !- Disable Self-Shading Within Shading Zone Groups
  No;                                     !- Disable Self-Shading From Shading Zone Groups to Other Zones

OS:HeatBalanceAlgorithm,
  {5cf991f1-a5fa-48a7-8b82-01b8a91ab121}, !- Handle
  ConductionTransferFunction,             !- Algorithm
  200;                                    !- Surface Temperature Upper Limit {C}

OS:RunPeriod,
  {40f8a76c-7223-45db-9910-103e5573ee23}, !- Handle
  Run Period 1,                           !- Name
  1,                                      !- Begin Month
  1,                                      !- Begin Day of Month
  1,                                      !- End Month
  31,                                     !- End Day of Month
  ,                                       !- Use Weather File Holidays and Special Days
  ,                                       !- Use Weather File Daylight Saving Period
  ,                                       !- Apply Weekend Holiday Rule
  ,                                       !- Use Weather File Rain Indicators
  ,                                       !- Use Weather File Snow Indicators
  ;                                       !- Number of Times Runperiod to be Repeated

OS:LifeCycleCost:Parameters,
  {5a9b80be-e4d0-4b7c-bd75-0c5b6335a72a}, !- Handle
  ,                                       !- Analysis Type
  ,                                       !- Discounting Convention
  ,                                       !- Inflation Approach
  ,                                       !- Real Discount Rate
  ,                                       !- Nominal Discount Rate
  ,                                       !- Inflation
  ,                                       !- Base Date Month
  ,                                       !- Base Date Year
  ,                                       !- Service Date Month
  ,                                       !- Service Date Year
  ;                                       !- Length of Study Period in Years

OS:WeatherFile,
  {40f178e8-3e0f-4010-8b7d-1e8eb53abba6}, !- Handle
  Boston Logan IntL Arpt,                 !- City
  MA,                                     !- State Province Region
  USA,                                    !- Country
  TMY3,                                   !- Data Source
  725090,                                 !- WMO Number
  42.37,                                  !- Latitude {deg}
  -71.02,                                 !- Longitude {deg}
  -5,                                     !- Time Zone {hr}
  6,                                      !- Elevation {m}
  C:/Users/Administrator/ladybug_tools/resources/weather/USA_MA_Boston-Logan.Intl.AP.725090_TMY3/USA_MA_Boston-Logan.Intl.AP.725090_TMY3.epw, !- Url
  B65824C3;                               !- Checksum

OS:ScheduleTypeLimits,
  {782a77ef-5130-4ad1-a207-30525908ecec}, !- Handle
  Temperature,                            !- Name
  -273.15,                                !- Lower Limit Value
  ,                                       !- Upper Limit Value
  Continuous,                             !- Numeric Type
  Temperature;                            !- Unit Type

OS:ScheduleTypeLimits,
  {dcfda9b2-8af2-4087-8173-ba24f26287aa}, !- Handle
  Activity Level,                         !- Name
  0,                                      !- Lower Limit Value
  ,                                       !- Upper Limit Value
  Continuous,                             !- Numeric Type
  ActivityLevel;                          !- Unit Type

OS:ScheduleTypeLimits,
  {1a981980-6dff-48bd-ac04-f8533b06f948}, !- Handle
  Fractional,                             !- Name
  0,                                      !- Lower Limit Value
  1,                                      !- Upper Limit Value
  Continuous,                             !- Numeric Type
  Dimensionless;                          !- Unit Type

OS:Schedule:Ruleset,
  {f6317b81-96fa-460a-8103-7c84a08864dd}, !- Handle
  Generic Office Infiltration,            !- Name
  {1a981980-6dff-48bd-ac04-f8533b06f948}, !- Schedule Type Limits Name
  {dbca4310-a0d1-48e8-8a28-fed6534eb6ec}, !- Default Day Schedule Name
  {3fd6d7ae-c811-4971-9058-79dc92666432}, !- Summer Design Day Schedule Name
  {28033d37-a0ae-49eb-8ecd-f789183a53e1}, !- Winter Design Day Schedule Name
  {7ef5fc11-a20f-4855-87b0-8047797ff44c}; !- Holiday Schedule Name

OS:Schedule:Day,
  {dbca4310-a0d1-48e8-8a28-fed6534eb6ec}, !- Handle
  Schedule Day 1,                         !- Name
  {1a981980-6dff-48bd-ac04-f8533b06f948}, !- Schedule Type Limits Name
  ,                                       !- Interpolate to Timestep
  24,                                     !- Hour 1
  0,                                      !- Minute 1
  1;                                      !- Value Until Time 1

OS:Schedule:Day,
  {8239c6c7-6cef-4789-926f-cd431350e4a1}, !- Handle
  OfficeMedium INFIL_SCH_PNNL_Default,    !- Name
  {1a981980-6dff-48bd-ac04-f8533b06f948}, !- Schedule Type Limits Name
  ,                                       !- Interpolate to Timestep
  24,                                     !- Hour 1
  0,                                      !- Minute 1
  1;                                      !- Value Until Time 1

OS:Schedule:Day,
  {b8941b61-b265-4e7a-8a51-2d18c0358990}, !- Handle
  OfficeMedium INFIL_SCH_PNNL_Wkdy_SmrDsn, !- Name
  {1a981980-6dff-48bd-ac04-f8533b06f948}, !- Schedule Type Limits Name
  ,                                       !- Interpolate to Timestep
  6,                                      !- Hour 1
  0,                                      !- Minute 1
  1,                                      !- Value Until Time 1
  22,                                     !- Hour 2
  0,                                      !- Minute 2
  0.25,                                   !- Value Until Time 2
  24,                                     !- Hour 3
  0,                                      !- Minute 3
  1;                                      !- Value Until Time 3

OS:Schedule:Day,
  {0ebffccf-113d-45fc-b969-02c666aa82ac}, !- Handle
  OfficeMedium INFIL_SCH_PNNL_Sat_WntrDsn, !- Name
  {1a981980-6dff-48bd-ac04-f8533b06f948}, !- Schedule Type Limits Name
  ,                                       !- Interpolate to Timestep
  6,                                      !- Hour 1
  0,                                      !- Minute 1
  1,                                      !- Value Until Time 1
  18,                                     !- Hour 2
  0,                                      !- Minute 2
  0.25,                                   !- Value Until Time 2
  24,                                     !- Hour 3
  0,                                      !- Minute 3
  1;                                      !- Value Until Time 3

OS:Schedule:Day,
  {8cac8046-b1ec-4370-a13a-f5ff601cdc50}, !- Handle
  OfficeMedium INFIL_SCH_PNNL_Wkdy,       !- Name
  {1a981980-6dff-48bd-ac04-f8533b06f948}, !- Schedule Type Limits Name
  ,                                       !- Interpolate to Timestep
  6,                                      !- Hour 1
  0,                                      !- Minute 1
  1,                                      !- Value Until Time 1
  22,                                     !- Hour 2
  0,                                      !- Minute 2
  0.25,                                   !- Value Until Time 2
  24,                                     !- Hour 3
  0,                                      !- Minute 3
  1;                                      !- Value Until Time 3

OS:Schedule:Day,
  {6193875e-09d7-42cd-865c-e449480e7a16}, !- Handle
  OfficeMedium INFIL_SCH_PNNL_Sat,        !- Name
  {1a981980-6dff-48bd-ac04-f8533b06f948}, !- Schedule Type Limits Name
  ,                                       !- Interpolate to Timestep
  6,                                      !- Hour 1
  0,                                      !- Minute 1
  1,                                      !- Value Until Time 1
  18,                                     !- Hour 2
  0,                                      !- Minute 2
  0.25,                                   !- Value Until Time 2
  24,                                     !- Hour 3
  0,                                      !- Minute 3
  1;                                      !- Value Until Time 3

OS:Schedule:Day,
  {7ef5fc11-a20f-4855-87b0-8047797ff44c}, !- Handle
  OfficeMedium INFIL_SCH_PNNL_Default 1,  !- Name
  {1a981980-6dff-48bd-ac04-f8533b06f948}, !- Schedule Type Limits Name
  ,                                       !- Interpolate to Timestep
  24,                                     !- Hour 1
  0,                                      !- Minute 1
  1;                                      !- Value Until Time 1

OS:Schedule:Day,
  {3fd6d7ae-c811-4971-9058-79dc92666432}, !- Handle
  OfficeMedium INFIL_SCH_PNNL_Wkdy_SmrDsn 1, !- Name
  {1a981980-6dff-48bd-ac04-f8533b06f948}, !- Schedule Type Limits Name
  ,                                       !- Interpolate to Timestep
  6,                                      !- Hour 1
  0,                                      !- Minute 1
  1,                                      !- Value Until Time 1
  22,                                     !- Hour 2
  0,                                      !- Minute 2
  0.25,                                   !- Value Until Time 2
  24,                                     !- Hour 3
  0,                                      !- Minute 3
  1;                                      !- Value Until Time 3

OS:Schedule:Day,
  {28033d37-a0ae-49eb-8ecd-f789183a53e1}, !- Handle
  OfficeMedium INFIL_SCH_PNNL_Sat_WntrDsn 1, !- Name
  {1a981980-6dff-48bd-ac04-f8533b06f948}, !- Schedule Type Limits Name
  ,                                       !- Interpolate to Timestep
  6,                                      !- Hour 1
  0,                                      !- Minute 1
  1,                                      !- Value Until Time 1
  18,                                     !- Hour 2
  0,                                      !- Minute 2
  0.25,                                   !- Value Until Time 2
  24,                                     !- Hour 3
  0,                                      !- Minute 3
  1;                                      !- Value Until Time 3

OS:Schedule:Rule,
  {b3dd5a23-5b70-4177-b4c4-25ff734d70ca}, !- Handle
  Schedule Rule 1,                        !- Name
  {f6317b81-96fa-460a-8103-7c84a08864dd}, !- Schedule Ruleset Name
  0,                                      !- Rule Order
  {5d018c34-3730-4eb4-8e6e-7f5a96e27467}, !- Day Schedule Name
  No,                                     !- Apply Sunday
  Yes,                                    !- Apply Monday
  Yes,                                    !- Apply Tuesday
  Yes,                                    !- Apply Wednesday
  Yes,                                    !- Apply Thursday
  Yes,                                    !- Apply Friday
  No,                                     !- Apply Saturday
  DateRange,                              !- Date Specification Type
  1,                                      !- Start Month
  1,                                      !- Start Day
  12,                                     !- End Month
  31;                                     !- End Day

OS:Schedule:Day,
  {5d018c34-3730-4eb4-8e6e-7f5a96e27467}, !- Handle
  Schedule Day 2,                         !- Name
  {1a981980-6dff-48bd-ac04-f8533b06f948}, !- Schedule Type Limits Name
  ,                                       !- Interpolate to Timestep
  6,                                      !- Hour 1
  0,                                      !- Minute 1
  1,                                      !- Value Until Time 1
  22,                                     !- Hour 2
  0,                                      !- Minute 2
  0.25,                                   !- Value Until Time 2
  24,                                     !- Hour 3
  0,                                      !- Minute 3
  1;                                      !- Value Until Time 3

OS:YearDescription,
  {93da13ac-ad27-4f63-a6d9-a89b7c25a20d}, !- Handle
  ,                                       !- Calendar Year
  Sunday;                                 !- Day of Week for Start Day

OS:Schedule:Rule,
  {61213ef6-4efd-4ad5-b785-c84fcdc0e35b}, !- Handle
  Schedule Rule 2,                        !- Name
  {f6317b81-96fa-460a-8103-7c84a08864dd}, !- Schedule Ruleset Name
  1,                                      !- Rule Order
  {563c5430-fd93-42ac-9291-8793e35f6ba5}, !- Day Schedule Name
  No,                                     !- Apply Sunday
  No,                                     !- Apply Monday
  No,                                     !- Apply Tuesday
  No,                                     !- Apply Wednesday
  No,                                     !- Apply Thursday
  No,                                     !- Apply Friday
  Yes,                                    !- Apply Saturday
  DateRange,                              !- Date Specification Type
  1,                                      !- Start Month
  1,                                      !- Start Day
  12,                                     !- End Month
  31;                                     !- End Day

OS:Schedule:Day,
  {563c5430-fd93-42ac-9291-8793e35f6ba5}, !- Handle
  Schedule Day 3,                         !- Name
  {1a981980-6dff-48bd-ac04-f8533b06f948}, !- Schedule Type Limits Name
  ,                                       !- Interpolate to Timestep
  6,                                      !- Hour 1
  0,                                      !- Minute 1
  1,                                      !- Value Until Time 1
  18,                                     !- Hour 2
  0,                                      !- Minute 2
  0.25,                                   !- Value Until Time 2
  24,                                     !- Hour 3
  0,                                      !- Minute 3
  1;                                      !- Value Until Time 3

OS:Schedule:Ruleset,
  {8c97123c-870a-462b-8bf9-e72c9a70f4da}, !- Handle
  Generic Office Heating,                 !- Name
  {782a77ef-5130-4ad1-a207-30525908ecec}, !- Schedule Type Limits Name
  {c24997a9-43dc-49c1-b9c7-65c3bdeeb38a}, !- Default Day Schedule Name
  {7f58db3b-b233-4ac8-a9cf-75ad01ad73d7}, !- Summer Design Day Schedule Name
  {34039677-4d78-45d9-b904-b55a8a9af91e}, !- Winter Design Day Schedule Name
  {ebdfad23-39f0-4013-ab9e-f55f94cb65ff}; !- Holiday Schedule Name

OS:Schedule:Day,
  {c24997a9-43dc-49c1-b9c7-65c3bdeeb38a}, !- Handle
  Schedule Day 4,                         !- Name
  {782a77ef-5130-4ad1-a207-30525908ecec}, !- Schedule Type Limits Name
  ,                                       !- Interpolate to Timestep
  24,                                     !- Hour 1
  0,                                      !- Minute 1
  15.6;                                   !- Value Until Time 1

OS:Schedule:Day,
  {acb79e9b-634e-42e6-a586-35f8d2cf568e}, !- Handle
  OfficeMedium HTGSETP_SCH_YES_OPTIMUM_Default, !- Name
  {782a77ef-5130-4ad1-a207-30525908ecec}, !- Schedule Type Limits Name
  ,                                       !- Interpolate to Timestep
  24,                                     !- Hour 1
  0,                                      !- Minute 1
  15.6;                                   !- Value Until Time 1

OS:Schedule:Day,
  {319c2eae-9d05-425c-8d56-01f20e9a5878}, !- Handle
  OfficeMedium HTGSETP_SCH_YES_OPTIMUM_Default_SmrDsn, !- Name
  {782a77ef-5130-4ad1-a207-30525908ecec}, !- Schedule Type Limits Name
  ,                                       !- Interpolate to Timestep
  24,                                     !- Hour 1
  0,                                      !- Minute 1
  15.6;                                   !- Value Until Time 1

OS:Schedule:Day,
  {8c5632ac-e801-43ff-9a20-58ae140e2bda}, !- Handle
  OfficeMedium HTGSETP_SCH_YES_OPTIMUM_WntrDsn, !- Name
  {782a77ef-5130-4ad1-a207-30525908ecec}, !- Schedule Type Limits Name
  ,                                       !- Interpolate to Timestep
  5,                                      !- Hour 1
  0,                                      !- Minute 1
  15.6,                                   !- Value Until Time 1
  6,                                      !- Hour 2
  0,                                      !- Minute 2
  17.6,                                   !- Value Until Time 2
  7,                                      !- Hour 3
  0,                                      !- Minute 3
  19.6,                                   !- Value Until Time 3
  22,                                     !- Hour 4
  0,                                      !- Minute 4
  21,                                     !- Value Until Time 4
  24,                                     !- Hour 5
  0,                                      !- Minute 5
  15.6;                                   !- Value Until Time 5

OS:Schedule:Day,
  {f0102466-9895-42ba-8dc8-b26e307a92cf}, !- Handle
  OfficeMedium HTGSETP_SCH_YES_OPTIMUM_Wkdy, !- Name
  {782a77ef-5130-4ad1-a207-30525908ecec}, !- Schedule Type Limits Name
  ,                                       !- Interpolate to Timestep
  5,                                      !- Hour 1
  0,                                      !- Minute 1
  15.6,                                   !- Value Until Time 1
  6,                                      !- Hour 2
  0,                                      !- Minute 2
  17.8,                                   !- Value Until Time 2
  7,                                      !- Hour 3
  0,                                      !- Minute 3
  20,                                     !- Value Until Time 3
  22,                                     !- Hour 4
  0,                                      !- Minute 4
  21,                                     !- Value Until Time 4
  24,                                     !- Hour 5
  0,                                      !- Minute 5
  15.6;                                   !- Value Until Time 5

OS:Schedule:Day,
  {5cc67642-c821-476e-a215-ca8c82c2060c}, !- Handle
  OfficeMedium HTGSETP_SCH_YES_OPTIMUM_Sat, !- Name
  {782a77ef-5130-4ad1-a207-30525908ecec}, !- Schedule Type Limits Name
  ,                                       !- Interpolate to Timestep
  5,                                      !- Hour 1
  0,                                      !- Minute 1
  15.6,                                   !- Value Until Time 1
  6,                                      !- Hour 2
  0,                                      !- Minute 2
  17.8,                                   !- Value Until Time 2
  7,                                      !- Hour 3
  0,                                      !- Minute 3
  20,                                     !- Value Until Time 3
  17,                                     !- Hour 4
  0,                                      !- Minute 4
  21,                                     !- Value Until Time 4
  24,                                     !- Hour 5
  0,                                      !- Minute 5
  15.6;                                   !- Value Until Time 5

OS:Schedule:Day,
  {ebdfad23-39f0-4013-ab9e-f55f94cb65ff}, !- Handle
  OfficeMedium HTGSETP_SCH_YES_OPTIMUM_Default 1, !- Name
  {782a77ef-5130-4ad1-a207-30525908ecec}, !- Schedule Type Limits Name
  ,                                       !- Interpolate to Timestep
  24,                                     !- Hour 1
  0,                                      !- Minute 1
  15.6;                                   !- Value Until Time 1

OS:Schedule:Day,
  {7f58db3b-b233-4ac8-a9cf-75ad01ad73d7}, !- Handle
  OfficeMedium HTGSETP_SCH_YES_OPTIMUM_Default_SmrDsn 1, !- Name
  {782a77ef-5130-4ad1-a207-30525908ecec}, !- Schedule Type Limits Name
  ,                                       !- Interpolate to Timestep
  24,                                     !- Hour 1
  0,                                      !- Minute 1
  15.6;                                   !- Value Until Time 1

OS:Schedule:Day,
  {34039677-4d78-45d9-b904-b55a8a9af91e}, !- Handle
  OfficeMedium HTGSETP_SCH_YES_OPTIMUM_WntrDsn 1, !- Name
  {782a77ef-5130-4ad1-a207-30525908ecec}, !- Schedule Type Limits Name
  ,                                       !- Interpolate to Timestep
  5,                                      !- Hour 1
  0,                                      !- Minute 1
  15.6,                                   !- Value Until Time 1
  6,                                      !- Hour 2
  0,                                      !- Minute 2
  17.6,                                   !- Value Until Time 2
  7,                                      !- Hour 3
  0,                                      !- Minute 3
  19.6,                                   !- Value Until Time 3
  22,                                     !- Hour 4
  0,                                      !- Minute 4
  21,                                     !- Value Until Time 4
  24,                                     !- Hour 5
  0,                                      !- Minute 5
  15.6;                                   !- Value Until Time 5

OS:Schedule:Rule,
  {6ad7d408-9ec9-4115-b72f-ae06d1639f4d}, !- Handle
  Schedule Rule 3,                        !- Name
  {8c97123c-870a-462b-8bf9-e72c9a70f4da}, !- Schedule Ruleset Name
  0,                                      !- Rule Order
  {e9246c6f-58ba-4893-95c6-656250548fad}, !- Day Schedule Name
  No,                                     !- Apply Sunday
  Yes,                                    !- Apply Monday
  Yes,                                    !- Apply Tuesday
  Yes,                                    !- Apply Wednesday
  Yes,                                    !- Apply Thursday
  Yes,                                    !- Apply Friday
  No,                                     !- Apply Saturday
  DateRange,                              !- Date Specification Type
  1,                                      !- Start Month
  1,                                      !- Start Day
  12,                                     !- End Month
  31;                                     !- End Day

OS:Schedule:Day,
  {e9246c6f-58ba-4893-95c6-656250548fad}, !- Handle
  Schedule Day 5,                         !- Name
  {782a77ef-5130-4ad1-a207-30525908ecec}, !- Schedule Type Limits Name
  ,                                       !- Interpolate to Timestep
  5,                                      !- Hour 1
  0,                                      !- Minute 1
  15.6,                                   !- Value Until Time 1
  6,                                      !- Hour 2
  0,                                      !- Minute 2
  17.8,                                   !- Value Until Time 2
  7,                                      !- Hour 3
  0,                                      !- Minute 3
  20,                                     !- Value Until Time 3
  22,                                     !- Hour 4
  0,                                      !- Minute 4
  21,                                     !- Value Until Time 4
  24,                                     !- Hour 5
  0,                                      !- Minute 5
  15.6;                                   !- Value Until Time 5

OS:Schedule:Rule,
  {669f9a56-92c4-4e0b-9886-66af1ef564d0}, !- Handle
  Schedule Rule 4,                        !- Name
  {8c97123c-870a-462b-8bf9-e72c9a70f4da}, !- Schedule Ruleset Name
  1,                                      !- Rule Order
  {10bbb9eb-e99d-4faf-a973-77583b2834f8}, !- Day Schedule Name
  No,                                     !- Apply Sunday
  No,                                     !- Apply Monday
  No,                                     !- Apply Tuesday
  No,                                     !- Apply Wednesday
  No,                                     !- Apply Thursday
  No,                                     !- Apply Friday
  Yes,                                    !- Apply Saturday
  DateRange,                              !- Date Specification Type
  1,                                      !- Start Month
  1,                                      !- Start Day
  12,                                     !- End Month
  31;                                     !- End Day

OS:Schedule:Day,
  {10bbb9eb-e99d-4faf-a973-77583b2834f8}, !- Handle
  Schedule Day 6,                         !- Name
  {782a77ef-5130-4ad1-a207-30525908ecec}, !- Schedule Type Limits Name
  ,                                       !- Interpolate to Timestep
  5,                                      !- Hour 1
  0,                                      !- Minute 1
  15.6,                                   !- Value Until Time 1
  6,                                      !- Hour 2
  0,                                      !- Minute 2
  17.8,                                   !- Value Until Time 2
  7,                                      !- Hour 3
  0,                                      !- Minute 3
  20,                                     !- Value Until Time 3
  17,                                     !- Hour 4
  0,                                      !- Minute 4
  21,                                     !- Value Until Time 4
  24,                                     !- Hour 5
  0,                                      !- Minute 5
  15.6;                                   !- Value Until Time 5

OS:Schedule:Ruleset,
  {a292ad3b-c562-4e17-9622-7592f89c2c64}, !- Handle
  Generic Office Equipment,               !- Name
  {1a981980-6dff-48bd-ac04-f8533b06f948}, !- Schedule Type Limits Name
  {92db4cca-9029-4323-8f47-c19ba50203ad}, !- Default Day Schedule Name
  {282d9f66-3a5c-4f5b-9618-c240505ab3e4}, !- Summer Design Day Schedule Name
  {149af46b-80e7-4d0e-a0d3-3b2e84b74501}, !- Winter Design Day Schedule Name
  {6f5c68d5-b582-4c6c-914f-34074fb9b107}; !- Holiday Schedule Name

OS:Schedule:Day,
  {92db4cca-9029-4323-8f47-c19ba50203ad}, !- Handle
  Schedule Day 7,                         !- Name
  {1a981980-6dff-48bd-ac04-f8533b06f948}, !- Schedule Type Limits Name
  ,                                       !- Interpolate to Timestep