
OS:Version,
  {7d0b93a0-ca14-496c-82a8-24424aaa4df0}, !- Handle
  3.0.1;                                  !- Version Identifier

OS:Building,
  {a1c23777-5813-4618-b2e0-cc540f88bc99}, !- Handle
  Building 1,                             !- Name
  ,                                       !- Building Sector Type
  -0,                                     !- North Axis {deg}
  ,                                       !- Nominal Floor to Floor Height {m}
  ,                                       !- Space Type Name
  {4f849c64-b161-481c-8739-e1816089a520}, !- Default Construction Set Name
  ,                                       !- Default Schedule Set Name
  ,                                       !- Standards Number of Stories
  ,                                       !- Standards Number of Above Ground Stories
  ,                                       !- Standards Template
  MediumOffice;                           !- Standards Building Type

OS:Facility,
  {2f55fab8-c98f-45d8-8034-9f63c796efe3}; !- Handle

OS:Site,
  {67fcaf8a-c4c8-4fce-969d-a6dd16515951}, !- Handle
  Site 1,                                 !- Name
  ,                                       !- Latitude {deg}
  ,                                       !- Longitude {deg}
  ,                                       !- Time Zone {hr}
  ,                                       !- Elevation {m}
  City;                                   !- Terrain

OS:SimulationControl,
  {ccc3c787-51b8-462e-a0dc-d1a9f41a69fc}, !- Handle
  Yes,                                    !- Do Zone Sizing Calculation
  Yes,                                    !- Do System Sizing Calculation
  Yes,                                    !- Do Plant Sizing Calculation
  No,                                     !- Run Simulation for Sizing Periods
  Yes,                                    !- Run Simulation for Weather File Run Periods
  ,                                       !- Loads Convergence Tolerance Value {W}
  ,                                       !- Temperature Convergence Tolerance Value {deltaC}
  FullExteriorWithReflections;            !- Solar Distribution

OS:Sizing:Parameters,
  {36a6e4be-d6a8-4387-8763-c7f6d007aa35}, !- Handle
  1.25,                                   !- Heating Sizing Factor
  1.15;                                   !- Cooling Sizing Factor

OS:Timestep,
  {2704c83e-0b2e-46bb-ab82-2e150cc21d80}, !- Handle
  6;                                      !- Number of Timesteps per Hour

OS:ShadowCalculation,
  {aa570e9e-1391-4431-92b1-6cd5a1b0b744}, !- Handle
  PolygonClipping,                        !- Shading Calculation Method
  Periodic,                               !- Shading Calculation Update Frequency Method
  30,                                     !- Shading Calculation Update Frequency
  15000,                                  !- Maximum Figures in Shadow Overlap Calculations
  ,                                       !- Polygon Clipping Algorithm
  512,                                    !- Pixel Counting Resolution
  ,                                       !- Sky Diffuse Modeling Algorithm
  No,                                     !- Output External Shading Calculation Results
  No,                                     !- Disable Self-Shading Within Shading Zone Groups
  No;                                     !- Disable Self-Shading From Shading Zone Groups to Other Zones

OS:HeatBalanceAlgorithm,
  {6e940734-f05f-4313-b5ab-05856658027d}, !- Handle
  ConductionTransferFunction,             !- Algorithm
  200;                                    !- Surface Temperature Upper Limit {C}

OS:RunPeriod,
  {c2d9ad5c-1232-4e1c-a810-bc48e33b0032}, !- Handle
  Run Period 1,                           !- Name
  1,                                      !- Begin Month
  1,                                      !- Begin Day of Month
  1,                                      !- End Month
  31,                                     !- End Day of Month
  ,                                       !- Use Weather File Holidays and Special Days
  ,                                       !- Use Weather File Daylight Saving Period
  ,                                       !- Apply Weekend Holiday Rule
  ,                                       !- Use Weather File Rain Indicators
  ,                                       !- Use Weather File Snow Indicators
  ;                                       !- Number of Times Runperiod to be Repeated

OS:LifeCycleCost:Parameters,
  {72198ef3-a27a-4660-87ca-d975c2d79e1c}, !- Handle
  ,                                       !- Analysis Type
  ,                                       !- Discounting Convention
  ,                                       !- Inflation Approach
  ,                                       !- Real Discount Rate
  ,                                       !- Nominal Discount Rate
  ,                                       !- Inflation
  ,                                       !- Base Date Month
  ,                                       !- Base Date Year
  ,                                       !- Service Date Month
  ,                                       !- Service Date Year
  ;                                       !- Length of Study Period in Years

OS:WeatherFile,
  {a84a9d5b-7f5c-4fa0-80bd-871da6f10596}, !- Handle
  Boston Logan IntL Arpt,                 !- City
  MA,                                     !- State Province Region
  USA,                                    !- Country
  TMY3,                                   !- Data Source
  725090,                                 !- WMO Number
  42.37,                                  !- Latitude {deg}
  -71.02,                                 !- Longitude {deg}
  -5,                                     !- Time Zone {hr}
  6,                                      !- Elevation {m}
  C:/Users/Administrator/ladybug_tools/resources/weather/USA_MA_Boston-Logan.Intl.AP.725090_TMY3/USA_MA_Boston-Logan.Intl.AP.725090_TMY3.epw, !- Url
  B65824C3;                               !- Checksum

OS:ScheduleTypeLimits,
  {24733909-28cf-4e86-ae3d-ab576d70cd63}, !- Handle
  Temperature,                            !- Name
  -273.15,                                !- Lower Limit Value
  ,                                       !- Upper Limit Value
  Continuous,                             !- Numeric Type
  Temperature;                            !- Unit Type

OS:ScheduleTypeLimits,
  {e8179abf-ba7a-4939-a791-6cd663b72dcb}, !- Handle
  Activity Level,                         !- Name
  0,                                      !- Lower Limit Value
  ,                                       !- Upper Limit Value
  Continuous,                             !- Numeric Type
  ActivityLevel;                          !- Unit Type

OS:ScheduleTypeLimits,
  {eb6e0a5d-9738-4f9b-8f79-9c1fad4a52a5}, !- Handle
  Fractional,                             !- Name
  0,                                      !- Lower Limit Value
  1,                                      !- Upper Limit Value
  Continuous,                             !- Numeric Type
  Dimensionless;                          !- Unit Type

OS:Schedule:Ruleset,
  {b06a09d8-a78c-4530-8043-f24147a69d98}, !- Handle
  Generic Office Infiltration,            !- Name
  {eb6e0a5d-9738-4f9b-8f79-9c1fad4a52a5}, !- Schedule Type Limits Name
  {dd843bee-a9ea-48d6-bf7e-83b161b8d06a}, !- Default Day Schedule Name
  {c3357865-61df-4e9c-a33f-ad33f82e1b42}, !- Summer Design Day Schedule Name
  {12c3517e-d3b9-483d-82a7-4173535b99ee}, !- Winter Design Day Schedule Name
  {b47380e7-02c1-4850-81a2-1325c8a4985f}; !- Holiday Schedule Name

OS:Schedule:Day,
  {dd843bee-a9ea-48d6-bf7e-83b161b8d06a}, !- Handle
  Schedule Day 1,                         !- Name
  {eb6e0a5d-9738-4f9b-8f79-9c1fad4a52a5}, !- Schedule Type Limits Name
  ,                                       !- Interpolate to Timestep
  24,                                     !- Hour 1
  0,                                      !- Minute 1
  1;                                      !- Value Until Time 1

OS:Schedule:Day,
  {7fd600d4-e538-4133-b0be-0330973a33fc}, !- Handle
  OfficeMedium INFIL_SCH_PNNL_Default,    !- Name
  {eb6e0a5d-9738-4f9b-8f79-9c1fad4a52a5}, !- Schedule Type Limits Name
  ,                                       !- Interpolate to Timestep
  24,                                     !- Hour 1
  0,                                      !- Minute 1
  1;                                      !- Value Until Time 1

OS:Schedule:Day,
  {f274488f-5344-431b-b8ff-205688eb5dee}, !- Handle
  OfficeMedium INFIL_SCH_PNNL_Wkdy_SmrDsn, !- Name
  {eb6e0a5d-9738-4f9b-8f79-9c1fad4a52a5}, !- Schedule Type Limits Name
  ,                                       !- Interpolate to Timestep
  6,                                      !- Hour 1
  0,                                      !- Minute 1
  1,                                      !- Value Until Time 1
  22,                                     !- Hour 2
  0,                                      !- Minute 2
  0.25,                                   !- Value Until Time 2
  24,                                     !- Hour 3
  0,                                      !- Minute 3
  1;                                      !- Value Until Time 3

OS:Schedule:Day,
  {ce826623-812b-436e-88ce-9cd8f053415c}, !- Handle
  OfficeMedium INFIL_SCH_PNNL_Sat_WntrDsn, !- Name
  {eb6e0a5d-9738-4f9b-8f79-9c1fad4a52a5}, !- Schedule Type Limits Name
  ,                                       !- Interpolate to Timestep
  6,                                      !- Hour 1
  0,                                      !- Minute 1
  1,                                      !- Value Until Time 1
  18,                                     !- Hour 2
  0,                                      !- Minute 2
  0.25,                                   !- Value Until Time 2
  24,                                     !- Hour 3
  0,                                      !- Minute 3
  1;                                      !- Value Until Time 3

OS:Schedule:Day,
  {a6893261-1831-4c31-b059-bb016a99105d}, !- Handle
  OfficeMedium INFIL_SCH_PNNL_Wkdy,       !- Name
  {eb6e0a5d-9738-4f9b-8f79-9c1fad4a52a5}, !- Schedule Type Limits Name
  ,                                       !- Interpolate to Timestep
  6,                                      !- Hour 1
  0,                                      !- Minute 1
  1,                                      !- Value Until Time 1
  22,                                     !- Hour 2
  0,                                      !- Minute 2
  0.25,                                   !- Value Until Time 2
  24,                                     !- Hour 3
  0,                                      !- Minute 3
  1;                                      !- Value Until Time 3

OS:Schedule:Day,
  {02d7efba-0fe5-4339-9d36-a97ac3236f02}, !- Handle
  OfficeMedium INFIL_SCH_PNNL_Sat,        !- Name
  {eb6e0a5d-9738-4f9b-8f79-9c1fad4a52a5}, !- Schedule Type Limits Name
  ,                                       !- Interpolate to Timestep
  6,                                      !- Hour 1
  0,                                      !- Minute 1
  1,                                      !- Value Until Time 1
  18,                                     !- Hour 2
  0,                                      !- Minute 2
  0.25,                                   !- Value Until Time 2
  24,                                     !- Hour 3
  0,                                      !- Minute 3
  1;                                      !- Value Until Time 3

OS:Schedule:Day,
  {b47380e7-02c1-4850-81a2-1325c8a4985f}, !- Handle
  OfficeMedium INFIL_SCH_PNNL_Default 1,  !- Name
  {eb6e0a5d-9738-4f9b-8f79-9c1fad4a52a5}, !- Schedule Type Limits Name
  ,                                       !- Interpolate to Timestep
  24,                                     !- Hour 1
  0,                                      !- Minute 1
  1;                                      !- Value Until Time 1

OS:Schedule:Day,
  {c3357865-61df-4e9c-a33f-ad33f82e1b42}, !- Handle
  OfficeMedium INFIL_SCH_PNNL_Wkdy_SmrDsn 1, !- Name
  {eb6e0a5d-9738-4f9b-8f79-9c1fad4a52a5}, !- Schedule Type Limits Name
  ,                                       !- Interpolate to Timestep
  6,                                      !- Hour 1
  0,                                      !- Minute 1
  1,                                      !- Value Until Time 1
  22,                                     !- Hour 2
  0,                                      !- Minute 2
  0.25,                                   !- Value Until Time 2
  24,                                     !- Hour 3
  0,                                      !- Minute 3
  1;                                      !- Value Until Time 3

OS:Schedule:Day,
  {12c3517e-d3b9-483d-82a7-4173535b99ee}, !- Handle
  OfficeMedium INFIL_SCH_PNNL_Sat_WntrDsn 1, !- Name
  {eb6e0a5d-9738-4f9b-8f79-9c1fad4a52a5}, !- Schedule Type Limits Name
  ,                                       !- Interpolate to Timestep
  6,                                      !- Hour 1
  0,                                      !- Minute 1
  1,                                      !- Value Until Time 1
  18,                                     !- Hour 2
  0,                                      !- Minute 2
  0.25,                                   !- Value Until Time 2
  24,                                     !- Hour 3
  0,                                      !- Minute 3
  1;                                      !- Value Until Time 3

OS:Schedule:Rule,
  {86e3e6de-eb4d-4e4f-9d42-c15afa483c77}, !- Handle
  Schedule Rule 1,                        !- Name
  {b06a09d8-a78c-4530-8043-f24147a69d98}, !- Schedule Ruleset Name
  0,                                      !- Rule Order
  {376a8959-ab44-4ed5-a822-37cd84b03600}, !- Day Schedule Name
  No,                                     !- Apply Sunday
  Yes,                                    !- Apply Monday
  Yes,                                    !- Apply Tuesday
  Yes,                                    !- Apply Wednesday
  Yes,                                    !- Apply Thursday
  Yes,                                    !- Apply Friday
  No,                                     !- Apply Saturday
  DateRange,                              !- Date Specification Type
  1,                                      !- Start Month
  1,                                      !- Start Day
  12,                                     !- End Month
  31;                                     !- End Day

OS:Schedule:Day,
  {376a8959-ab44-4ed5-a822-37cd84b03600}, !- Handle
  Schedule Day 2,                         !- Name
  {eb6e0a5d-9738-4f9b-8f79-9c1fad4a52a5}, !- Schedule Type Limits Name
  ,                                       !- Interpolate to Timestep
  6,                                      !- Hour 1
  0,                                      !- Minute 1
  1,                                      !- Value Until Time 1
  22,                                     !- Hour 2
  0,                                      !- Minute 2
  0.25,                                   !- Value Until Time 2
  24,                                     !- Hour 3
  0,                                      !- Minute 3
  1;                                      !- Value Until Time 3

OS:YearDescription,
  {ec9d9704-f21d-44c6-a684-e3e448dcaaaf}, !- Handle
  ,                                       !- Calendar Year
  Sunday;                                 !- Day of Week for Start Day

OS:Schedule:Rule,
  {a0f2baf6-19f2-4f68-aefe-de8275987960}, !- Handle
  Schedule Rule 2,                        !- Name
  {b06a09d8-a78c-4530-8043-f24147a69d98}, !- Schedule Ruleset Name
  1,                                      !- Rule Order
  {2aaeaf80-8538-4fe6-99eb-ee44da7a1e55}, !- Day Schedule Name
  No,                                     !- Apply Sunday
  No,                                     !- Apply Monday
  No,                                     !- Apply Tuesday
  No,                                     !- Apply Wednesday
  No,                                     !- Apply Thursday
  No,                                     !- Apply Friday
  Yes,                                    !- Apply Saturday
  DateRange,                              !- Date Specification Type
  1,                                      !- Start Month
  1,                                      !- Start Day
  12,                                     !- End Month
  31;                                     !- End Day

OS:Schedule:Day,
  {2aaeaf80-8538-4fe6-99eb-ee44da7a1e55}, !- Handle
  Schedule Day 3,                         !- Name
  {eb6e0a5d-9738-4f9b-8f79-9c1fad4a52a5}, !- Schedule Type Limits Name
  ,                                       !- Interpolate to Timestep
  6,                                      !- Hour 1
  0,                                      !- Minute 1
  1,                                      !- Value Until Time 1
  18,                                     !- Hour 2
  0,                                      !- Minute 2
  0.25,                                   !- Value Until Time 2
  24,                                     !- Hour 3
  0,                                      !- Minute 3
  1;                                      !- Value Until Time 3

OS:Schedule:Ruleset,
  {b1488d55-8fed-4c04-b3d6-a3a029ff9965}, !- Handle
  Generic Office Heating,                 !- Name
  {24733909-28cf-4e86-ae3d-ab576d70cd63}, !- Schedule Type Limits Name
  {86161a8f-0129-427d-bd73-cf336fe2e692}, !- Default Day Schedule Name
  {3e9ea930-f979-40b9-82a0-f0b7f52cd4f0}, !- Summer Design Day Schedule Name
  {1cb086d8-0b8a-4947-ac27-fbac6754504b}, !- Winter Design Day Schedule Name
  {2cfe8c00-9681-4502-91d6-122e4a27c98d}; !- Holiday Schedule Name

OS:Schedule:Day,
  {86161a8f-0129-427d-bd73-cf336fe2e692}, !- Handle
  Schedule Day 4,                         !- Name
  {24733909-28cf-4e86-ae3d-ab576d70cd63}, !- Schedule Type Limits Name
  ,                                       !- Interpolate to Timestep
  24,                                     !- Hour 1
  0,                                      !- Minute 1
  15.6;                                   !- Value Until Time 1

OS:Schedule:Day,
  {2ea467d3-7e96-4f61-b3ed-b3a05073b194}, !- Handle
  OfficeMedium HTGSETP_SCH_YES_OPTIMUM_Default, !- Name
  {24733909-28cf-4e86-ae3d-ab576d70cd63}, !- Schedule Type Limits Name
  ,                                       !- Interpolate to Timestep
  24,                                     !- Hour 1
  0,                                      !- Minute 1
  15.6;                                   !- Value Until Time 1

OS:Schedule:Day,
  {1e095c46-051e-4439-9f3b-3ec597eb8145}, !- Handle
  OfficeMedium HTGSETP_SCH_YES_OPTIMUM_Default_SmrDsn, !- Name
  {24733909-28cf-4e86-ae3d-ab576d70cd63}, !- Schedule Type Limits Name
  ,                                       !- Interpolate to Timestep
  24,                                     !- Hour 1
  0,                                      !- Minute 1
  15.6;                                   !- Value Until Time 1

OS:Schedule:Day,
  {5c69f803-9aba-47d9-9ffb-b4a021cfa7cf}, !- Handle
  OfficeMedium HTGSETP_SCH_YES_OPTIMUM_WntrDsn, !- Name
  {24733909-28cf-4e86-ae3d-ab576d70cd63}, !- Schedule Type Limits Name
  ,                                       !- Interpolate to Timestep
  5,                                      !- Hour 1
  0,                                      !- Minute 1
  15.6,                                   !- Value Until Time 1
  6,                                      !- Hour 2
  0,                                      !- Minute 2
  17.6,                                   !- Value Until Time 2
  7,                                      !- Hour 3
  0,                                      !- Minute 3
  19.6,                                   !- Value Until Time 3
  22,                                     !- Hour 4
  0,                                      !- Minute 4
  21,                                     !- Value Until Time 4
  24,                                     !- Hour 5
  0,                                      !- Minute 5
  15.6;                                   !- Value Until Time 5

OS:Schedule:Day,
  {611150ac-7fda-48bc-870b-b01d053e1370}, !- Handle
  OfficeMedium HTGSETP_SCH_YES_OPTIMUM_Wkdy, !- Name
  {24733909-28cf-4e86-ae3d-ab576d70cd63}, !- Schedule Type Limits Name
  ,                                       !- Interpolate to Timestep
  5,                                      !- Hour 1
  0,                                      !- Minute 1
  15.6,                                   !- Value Until Time 1
  6,                                      !- Hour 2
  0,                                      !- Minute 2
  17.8,                                   !- Value Until Time 2
  7,                                      !- Hour 3
  0,                                      !- Minute 3
  20,                                     !- Value Until Time 3
  22,                                     !- Hour 4
  0,                                      !- Minute 4
  21,                                     !- Value Until Time 4
  24,                                     !- Hour 5
  0,                                      !- Minute 5
  15.6;                                   !- Value Until Time 5

OS:Schedule:Day,
  {4493332b-7412-4afc-a9e5-fc570e22b7ed}, !- Handle
  OfficeMedium HTGSETP_SCH_YES_OPTIMUM_Sat, !- Name
  {24733909-28cf-4e86-ae3d-ab576d70cd63}, !- Schedule Type Limits Name
  ,                                       !- Interpolate to Timestep
  5,                                      !- Hour 1
  0,                                      !- Minute 1
  15.6,                                   !- Value Until Time 1
  6,                                      !- Hour 2
  0,                                      !- Minute 2
  17.8,                                   !- Value Until Time 2
  7,                                      !- Hour 3
  0,                                      !- Minute 3
  20,                                     !- Value Until Time 3
  17,                                     !- Hour 4
  0,                                      !- Minute 4
  21,                                     !- Value Until Time 4
  24,                                     !- Hour 5
  0,                                      !- Minute 5
  15.6;                                   !- Value Until Time 5

OS:Schedule:Day,
  {2cfe8c00-9681-4502-91d6-122e4a27c98d}, !- Handle
  OfficeMedium HTGSETP_SCH_YES_OPTIMUM_Default 1, !- Name
  {24733909-28cf-4e86-ae3d-ab576d70cd63}, !- Schedule Type Limits Name
  ,                                       !- Interpolate to Timestep
  24,                                     !- Hour 1
  0,                                      !- Minute 1
  15.6;                                   !- Value Until Time 1

OS:Schedule:Day,
  {3e9ea930-f979-40b9-82a0-f0b7f52cd4f0}, !- Handle
  OfficeMedium HTGSETP_SCH_YES_OPTIMUM_Default_SmrDsn 1, !- Name
  {24733909-28cf-4e86-ae3d-ab576d70cd63}, !- Schedule Type Limits Name
  ,                                       !- Interpolate to Timestep
  24,                                     !- Hour 1
  0,                                      !- Minute 1
  15.6;                                   !- Value Until Time 1

OS:Schedule:Day,
  {1cb086d8-0b8a-4947-ac27-fbac6754504b}, !- Handle
  OfficeMedium HTGSETP_SCH_YES_OPTIMUM_WntrDsn 1, !- Name
  {24733909-28cf-4e86-ae3d-ab576d70cd63}, !- Schedule Type Limits Name
  ,                                       !- Interpolate to Timestep
  5,                                      !- Hour 1
  0,                                      !- Minute 1
  15.6,                                   !- Value Until Time 1
  6,                                      !- Hour 2
  0,                                      !- Minute 2
  17.6,                                   !- Value Until Time 2
  7,                                      !- Hour 3
  0,                                      !- Minute 3
  19.6,                                   !- Value Until Time 3
  22,                                     !- Hour 4
  0,                                      !- Minute 4
  21,                                     !- Value Until Time 4
  24,                                     !- Hour 5
  0,                                      !- Minute 5
  15.6;                                   !- Value Until Time 5

OS:Schedule:Rule,
  {71cafbfb-884c-4e53-b53b-1ff113cb1d95}, !- Handle
  Schedule Rule 3,                        !- Name
  {b1488d55-8fed-4c04-b3d6-a3a029ff9965}, !- Schedule Ruleset Name
  0,                                      !- Rule Order
  {a72753c5-53c2-40b6-85c6-ceec79640816}, !- Day Schedule Name
  No,                                     !- Apply Sunday
  Yes,                                    !- Apply Monday
  Yes,                                    !- Apply Tuesday
  Yes,                                    !- Apply Wednesday
  Yes,                                    !- Apply Thursday
  Yes,                                    !- Apply Friday
  No,                                     !- Apply Saturday
  DateRange,                              !- Date Specification Type
  1,                                      !- Start Month
  1,                                      !- Start Day
  12,                                     !- End Month
  31;                                     !- End Day

OS:Schedule:Day,
  {a72753c5-53c2-40b6-85c6-ceec79640816}, !- Handle
  Schedule Day 5,                         !- Name
  {24733909-28cf-4e86-ae3d-ab576d70cd63}, !- Schedule Type Limits Name
  ,                                       !- Interpolate to Timestep
  5,                                      !- Hour 1
  0,                                      !- Minute 1
  15.6,                                   !- Value Until Time 1
  6,                                      !- Hour 2
  0,                                      !- Minute 2
  17.8,                                   !- Value Until Time 2
  7,                                      !- Hour 3
  0,                                      !- Minute 3
  20,                                     !- Value Until Time 3
  22,                                     !- Hour 4
  0,                                      !- Minute 4
  21,                                     !- Value Until Time 4
  24,                                     !- Hour 5
  0,                                      !- Minute 5
  15.6;                                   !- Value Until Time 5

OS:Schedule:Rule,
  {d226fae6-4346-430e-b46e-ba15aebe90f8}, !- Handle
  Schedule Rule 4,                        !- Name
  {b1488d55-8fed-4c04-b3d6-a3a029ff9965}, !- Schedule Ruleset Name
  1,                                      !- Rule Order
  {1a854b19-4326-4eb0-b6b2-b0d8e4b13bdc}, !- Day Schedule Name
  No,                                     !- Apply Sunday
  No,                                     !- Apply Monday
  No,                                     !- Apply Tuesday
  No,                                     !- Apply Wednesday
  No,                                     !- Apply Thursday
  No,                                     !- Apply Friday
  Yes,                                    !- Apply Saturday
  DateRange,                              !- Date Specification Type
  1,                                      !- Start Month
  1,                                      !- Start Day
  12,                                     !- End Month
  31;                                     !- End Day

OS:Schedule:Day,
  {1a854b19-4326-4eb0-b6b2-b0d8e4b13bdc}, !- Handle
  Schedule Day 6,                         !- Name
  {24733909-28cf-4e86-ae3d-ab576d70cd63}, !- Schedule Type Limits Name
  ,                                       !- Interpolate to Timestep
  5,                                      !- Hour 1
  0,                                      !- Minute 1
  15.6,                                   !- Value Until Time 1
  6,                                      !- Hour 2
  0,                                      !- Minute 2
  17.8,                                   !- Value Until Time 2
  7,                                      !- Hour 3
  0,                                      !- Minute 3
  20,                                     !- Value Until Time 3
  17,                                     !- Hour 4
  0,                                      !- Minute 4
  21,                                     !- Value Until Time 4
  24,                                     !- Hour 5
  0,                                      !- Minute 5
  15.6;                                   !- Value Until Time 5

OS:Schedule:Ruleset,
  {0d5f3bf8-2e89-4f90-99ea-bd2c31af1326}, !- Handle
  Generic Office Equipment,               !- Name
  {eb6e0a5d-9738-4f9b-8f79-9c1fad4a52a5}, !- Schedule Type Limits Name
  {cffb96ce-9295-4c83-94fa-c7288b46d9c4}, !- Default Day Schedule Name
  {ef17cebf-e72c-4514-8036-5c9bf0de8d3e}, !- Summer Design Day Schedule Name
  {0ec7f572-fb03-4222-b1e1-67b3dd0296d7}, !- Winter Design Day Schedule Name
  {6101fab6-ea86-4db8-a1ec-412ca54503ba}; !- Holiday Schedule Name

OS:Schedule:Day,
  {cffb96ce-9295-4c83-94fa-c7288b46d9c4}, !- Handle
  Schedule Day 7,                         !- Name
  {eb6e0a5d-9738-4f9b-8f79-9c1fad4a52a5}, !- Schedule Type Limits Name
  ,                                       !- Interpolate to Timestep