
OS:Version,
  {3582826b-e4a5-47cb-9308-dcfc7153b832}, !- Handle
  3.0.1;                                  !- Version Identifier

OS:Building,
  {7c4a3450-dad6-4c10-affc-4af8349fa286}, !- Handle
  Building 1,                             !- Name
  ,                                       !- Building Sector Type
  -0,                                     !- North Axis {deg}
  ,                                       !- Nominal Floor to Floor Height {m}
  ,                                       !- Space Type Name
  {c1ec0263-900b-4207-ae3b-b995e141149a}, !- Default Construction Set Name
  ,                                       !- Default Schedule Set Name
  ,                                       !- Standards Number of Stories
  ,                                       !- Standards Number of Above Ground Stories
  ,                                       !- Standards Template
  MediumOffice;                           !- Standards Building Type

OS:Facility,
  {2569ee66-af72-41f4-b4e8-1c459216ea16}; !- Handle

OS:Site,
  {d47ec5b1-7493-4d9c-9515-0ff339b23736}, !- Handle
  Site 1,                                 !- Name
  ,                                       !- Latitude {deg}
  ,                                       !- Longitude {deg}
  ,                                       !- Time Zone {hr}
  ,                                       !- Elevation {m}
  City;                                   !- Terrain

OS:SimulationControl,
  {7948e44c-ed4d-4794-a789-6cbdd4d071b3}, !- Handle
  Yes,                                    !- Do Zone Sizing Calculation
  Yes,                                    !- Do System Sizing Calculation
  Yes,                                    !- Do Plant Sizing Calculation
  No,                                     !- Run Simulation for Sizing Periods
  Yes,                                    !- Run Simulation for Weather File Run Periods
  ,                                       !- Loads Convergence Tolerance Value {W}
  ,                                       !- Temperature Convergence Tolerance Value {deltaC}
  FullExteriorWithReflections;            !- Solar Distribution

OS:Sizing:Parameters,
  {351239a5-e6f8-4aa6-b6c5-61dde9c1cc97}, !- Handle
  1.25,                                   !- Heating Sizing Factor
  1.15;                                   !- Cooling Sizing Factor

OS:Timestep,
  {92052011-e9b8-4ef9-aa99-4dbd5acb423b}, !- Handle
  6;                                      !- Number of Timesteps per Hour

OS:ShadowCalculation,
  {a5b45cee-71f0-46a3-ba0e-742a877c64a9}, !- Handle
  PolygonClipping,                        !- Shading Calculation Method
  Periodic,                               !- Shading Calculation Update Frequency Method
  30,                                     !- Shading Calculation Update Frequency
  15000,                                  !- Maximum Figures in Shadow Overlap Calculations
  ,                                       !- Polygon Clipping Algorithm
  512,                                    !- Pixel Counting Resolution
  ,                                       !- Sky Diffuse Modeling Algorithm
  No,                                     !- Output External Shading Calculation Results
  No,                                     !- Disable Self-Shading Within Shading Zone Groups
  No;                                     !- Disable Self-Shading From Shading Zone Groups to Other Zones

OS:HeatBalanceAlgorithm,
  {b319253c-50e8-41ab-8896-de6403b5d9c0}, !- Handle
  ConductionTransferFunction,             !- Algorithm
  200;                                    !- Surface Temperature Upper Limit {C}

OS:RunPeriod,
  {fba4e274-c3a5-46e8-a607-f831e5f9d14f}, !- Handle
  Run Period 1,                           !- Name
  1,                                      !- Begin Month
  1,                                      !- Begin Day of Month
  1,                                      !- End Month
  31,                                     !- End Day of Month
  ,                                       !- Use Weather File Holidays and Special Days
  ,                                       !- Use Weather File Daylight Saving Period
  ,                                       !- Apply Weekend Holiday Rule
  ,                                       !- Use Weather File Rain Indicators
  ,                                       !- Use Weather File Snow Indicators
  ;                                       !- Number of Times Runperiod to be Repeated

OS:LifeCycleCost:Parameters,
  {435fd6f6-006a-4b1d-9bc6-7f0ec24feed6}, !- Handle
  ,                                       !- Analysis Type
  ,                                       !- Discounting Convention
  ,                                       !- Inflation Approach
  ,                                       !- Real Discount Rate
  ,                                       !- Nominal Discount Rate
  ,                                       !- Inflation
  ,                                       !- Base Date Month
  ,                                       !- Base Date Year
  ,                                       !- Service Date Month
  ,                                       !- Service Date Year
  ;                                       !- Length of Study Period in Years

OS:WeatherFile,
  {fa462884-cb9f-4fd7-be52-759675246843}, !- Handle
  Boston Logan IntL Arpt,                 !- City
  MA,                                     !- State Province Region
  USA,                                    !- Country
  TMY3,                                   !- Data Source
  725090,                                 !- WMO Number
  42.37,                                  !- Latitude {deg}
  -71.02,                                 !- Longitude {deg}
  -5,                                     !- Time Zone {hr}
  6,                                      !- Elevation {m}
  C:/Users/Administrator/ladybug_tools/resources/weather/USA_MA_Boston-Logan.Intl.AP.725090_TMY3/USA_MA_Boston-Logan.Intl.AP.725090_TMY3.epw, !- Url
  B65824C3;                               !- Checksum

OS:ScheduleTypeLimits,
  {a3538917-cec6-438b-8226-eb0bc768cd3b}, !- Handle
  Temperature,                            !- Name
  -273.15,                                !- Lower Limit Value
  ,                                       !- Upper Limit Value
  Continuous,                             !- Numeric Type
  Temperature;                            !- Unit Type

OS:ScheduleTypeLimits,
  {a5bedb3a-f062-4209-a772-08ac3582ddde}, !- Handle
  Activity Level,                         !- Name
  0,                                      !- Lower Limit Value
  ,                                       !- Upper Limit Value
  Continuous,                             !- Numeric Type
  ActivityLevel;                          !- Unit Type

OS:ScheduleTypeLimits,
  {e81886ea-1f3c-45ea-92e2-4f0c4f226dda}, !- Handle
  Fractional,                             !- Name
  0,                                      !- Lower Limit Value
  1,                                      !- Upper Limit Value
  Continuous,                             !- Numeric Type
  Dimensionless;                          !- Unit Type

OS:Schedule:Ruleset,
  {63dcc04a-3555-47e3-b2e4-ac4f237091ef}, !- Handle
  Generic Office Infiltration,            !- Name
  {e81886ea-1f3c-45ea-92e2-4f0c4f226dda}, !- Schedule Type Limits Name
  {a55dac71-21ac-4f1d-8e02-14e5a6088a5e}, !- Default Day Schedule Name
  {a7cd2987-dd0b-4387-a593-8ab33c53edd9}, !- Summer Design Day Schedule Name
  {f0acde24-8e95-4aa5-8d8e-cf3e19db9687}, !- Winter Design Day Schedule Name
  {1a131830-474a-4611-be54-1367cbb4989a}; !- Holiday Schedule Name

OS:Schedule:Day,
  {a55dac71-21ac-4f1d-8e02-14e5a6088a5e}, !- Handle
  Schedule Day 1,                         !- Name
  {e81886ea-1f3c-45ea-92e2-4f0c4f226dda}, !- Schedule Type Limits Name
  ,                                       !- Interpolate to Timestep
  24,                                     !- Hour 1
  0,                                      !- Minute 1
  1;                                      !- Value Until Time 1

OS:Schedule:Day,
  {a42d7f3f-0ba9-4a1b-9e02-0e81cd8240d7}, !- Handle
  OfficeMedium INFIL_SCH_PNNL_Default,    !- Name
  {e81886ea-1f3c-45ea-92e2-4f0c4f226dda}, !- Schedule Type Limits Name
  ,                                       !- Interpolate to Timestep
  24,                                     !- Hour 1
  0,                                      !- Minute 1
  1;                                      !- Value Until Time 1

OS:Schedule:Day,
  {3a5e4851-f0df-4450-92a3-6ebde66b28bd}, !- Handle
  OfficeMedium INFIL_SCH_PNNL_Wkdy_SmrDsn, !- Name
  {e81886ea-1f3c-45ea-92e2-4f0c4f226dda}, !- Schedule Type Limits Name
  ,                                       !- Interpolate to Timestep
  6,                                      !- Hour 1
  0,                                      !- Minute 1
  1,                                      !- Value Until Time 1
  22,                                     !- Hour 2
  0,                                      !- Minute 2
  0.25,                                   !- Value Until Time 2
  24,                                     !- Hour 3
  0,                                      !- Minute 3
  1;                                      !- Value Until Time 3

OS:Schedule:Day,
  {d3c01425-35ee-477a-add2-8628ecbaa620}, !- Handle
  OfficeMedium INFIL_SCH_PNNL_Sat_WntrDsn, !- Name
  {e81886ea-1f3c-45ea-92e2-4f0c4f226dda}, !- Schedule Type Limits Name
  ,                                       !- Interpolate to Timestep
  6,                                      !- Hour 1
  0,                                      !- Minute 1
  1,                                      !- Value Until Time 1
  18,                                     !- Hour 2
  0,                                      !- Minute 2
  0.25,                                   !- Value Until Time 2
  24,                                     !- Hour 3
  0,                                      !- Minute 3
  1;                                      !- Value Until Time 3

OS:Schedule:Day,
  {30afa9d6-9453-4a76-8e36-ba9a28d4d330}, !- Handle
  OfficeMedium INFIL_SCH_PNNL_Wkdy,       !- Name
  {e81886ea-1f3c-45ea-92e2-4f0c4f226dda}, !- Schedule Type Limits Name
  ,                                       !- Interpolate to Timestep
  6,                                      !- Hour 1
  0,                                      !- Minute 1
  1,                                      !- Value Until Time 1
  22,                                     !- Hour 2
  0,                                      !- Minute 2
  0.25,                                   !- Value Until Time 2
  24,                                     !- Hour 3
  0,                                      !- Minute 3
  1;                                      !- Value Until Time 3

OS:Schedule:Day,
  {483c1829-78f4-4320-aeb5-95831f5a8a5f}, !- Handle
  OfficeMedium INFIL_SCH_PNNL_Sat,        !- Name
  {e81886ea-1f3c-45ea-92e2-4f0c4f226dda}, !- Schedule Type Limits Name
  ,                                       !- Interpolate to Timestep
  6,                                      !- Hour 1
  0,                                      !- Minute 1
  1,                                      !- Value Until Time 1
  18,                                     !- Hour 2
  0,                                      !- Minute 2
  0.25,                                   !- Value Until Time 2
  24,                                     !- Hour 3
  0,                                      !- Minute 3
  1;                                      !- Value Until Time 3

OS:Schedule:Day,
  {1a131830-474a-4611-be54-1367cbb4989a}, !- Handle
  OfficeMedium INFIL_SCH_PNNL_Default 1,  !- Name
  {e81886ea-1f3c-45ea-92e2-4f0c4f226dda}, !- Schedule Type Limits Name
  ,                                       !- Interpolate to Timestep
  24,                                     !- Hour 1
  0,                                      !- Minute 1
  1;                                      !- Value Until Time 1

OS:Schedule:Day,
  {a7cd2987-dd0b-4387-a593-8ab33c53edd9}, !- Handle
  OfficeMedium INFIL_SCH_PNNL_Wkdy_SmrDsn 1, !- Name
  {e81886ea-1f3c-45ea-92e2-4f0c4f226dda}, !- Schedule Type Limits Name
  ,                                       !- Interpolate to Timestep
  6,                                      !- Hour 1
  0,                                      !- Minute 1
  1,                                      !- Value Until Time 1
  22,                                     !- Hour 2
  0,                                      !- Minute 2
  0.25,                                   !- Value Until Time 2
  24,                                     !- Hour 3
  0,                                      !- Minute 3
  1;                                      !- Value Until Time 3

OS:Schedule:Day,
  {f0acde24-8e95-4aa5-8d8e-cf3e19db9687}, !- Handle
  OfficeMedium INFIL_SCH_PNNL_Sat_WntrDsn 1, !- Name
  {e81886ea-1f3c-45ea-92e2-4f0c4f226dda}, !- Schedule Type Limits Name
  ,                                       !- Interpolate to Timestep
  6,                                      !- Hour 1
  0,                                      !- Minute 1
  1,                                      !- Value Until Time 1
  18,                                     !- Hour 2
  0,                                      !- Minute 2
  0.25,                                   !- Value Until Time 2
  24,                                     !- Hour 3
  0,                                      !- Minute 3
  1;                                      !- Value Until Time 3

OS:Schedule:Rule,
  {3ab27d79-5b3a-486f-bcca-9252227c2a9f}, !- Handle
  Schedule Rule 1,                        !- Name
  {63dcc04a-3555-47e3-b2e4-ac4f237091ef}, !- Schedule Ruleset Name
  0,                                      !- Rule Order
  {60582476-52e3-40a9-892e-265af5c03986}, !- Day Schedule Name
  No,                                     !- Apply Sunday
  Yes,                                    !- Apply Monday
  Yes,                                    !- Apply Tuesday
  Yes,                                    !- Apply Wednesday
  Yes,                                    !- Apply Thursday
  Yes,                                    !- Apply Friday
  No,                                     !- Apply Saturday
  DateRange,                              !- Date Specification Type
  1,                                      !- Start Month
  1,                                      !- Start Day
  12,                                     !- End Month
  31;                                     !- End Day

OS:Schedule:Day,
  {60582476-52e3-40a9-892e-265af5c03986}, !- Handle
  Schedule Day 2,                         !- Name
  {e81886ea-1f3c-45ea-92e2-4f0c4f226dda}, !- Schedule Type Limits Name
  ,                                       !- Interpolate to Timestep
  6,                                      !- Hour 1
  0,                                      !- Minute 1
  1,                                      !- Value Until Time 1
  22,                                     !- Hour 2
  0,                                      !- Minute 2
  0.25,                                   !- Value Until Time 2
  24,                                     !- Hour 3
  0,                                      !- Minute 3
  1;                                      !- Value Until Time 3

OS:YearDescription,
  {1d456735-3bde-44d2-87bf-2b53a76b5b4f}, !- Handle
  ,                                       !- Calendar Year
  Sunday;                                 !- Day of Week for Start Day

OS:Schedule:Rule,
  {216065d3-594b-44b2-8344-4f297127fa91}, !- Handle
  Schedule Rule 2,                        !- Name
  {63dcc04a-3555-47e3-b2e4-ac4f237091ef}, !- Schedule Ruleset Name
  1,                                      !- Rule Order
  {29c49a0f-030a-44c0-ab70-e85ee219fa38}, !- Day Schedule Name
  No,                                     !- Apply Sunday
  No,                                     !- Apply Monday
  No,                                     !- Apply Tuesday
  No,                                     !- Apply Wednesday
  No,                                     !- Apply Thursday
  No,                                     !- Apply Friday
  Yes,                                    !- Apply Saturday
  DateRange,                              !- Date Specification Type
  1,                                      !- Start Month
  1,                                      !- Start Day
  12,                                     !- End Month
  31;                                     !- End Day

OS:Schedule:Day,
  {29c49a0f-030a-44c0-ab70-e85ee219fa38}, !- Handle
  Schedule Day 3,                         !- Name
  {e81886ea-1f3c-45ea-92e2-4f0c4f226dda}, !- Schedule Type Limits Name
  ,                                       !- Interpolate to Timestep
  6,                                      !- Hour 1
  0,                                      !- Minute 1
  1,                                      !- Value Until Time 1
  18,                                     !- Hour 2
  0,                                      !- Minute 2
  0.25,                                   !- Value Until Time 2
  24,                                     !- Hour 3
  0,                                      !- Minute 3
  1;                                      !- Value Until Time 3

OS:Schedule:Ruleset,
  {445f3cd4-c793-4c17-b4b8-32874f5f6c6a}, !- Handle
  Generic Office Heating,                 !- Name
  {a3538917-cec6-438b-8226-eb0bc768cd3b}, !- Schedule Type Limits Name
  {22cddbc5-caf4-4a94-a269-904f1f0a28f6}, !- Default Day Schedule Name
  {798ed081-cd7c-40c0-9711-b24eb977af06}, !- Summer Design Day Schedule Name
  {5ea4530c-a4d5-4f11-b9c1-68443146a5a5}, !- Winter Design Day Schedule Name
  {c53b9acb-6981-4427-b1b9-4a02e7e00f85}; !- Holiday Schedule Name

OS:Schedule:Day,
  {22cddbc5-caf4-4a94-a269-904f1f0a28f6}, !- Handle
  Schedule Day 4,                         !- Name
  {a3538917-cec6-438b-8226-eb0bc768cd3b}, !- Schedule Type Limits Name
  ,                                       !- Interpolate to Timestep
  24,                                     !- Hour 1
  0,                                      !- Minute 1
  15.6;                                   !- Value Until Time 1

OS:Schedule:Day,
  {ec4ad929-730e-4775-9344-f6ce32b7ebba}, !- Handle
  OfficeMedium HTGSETP_SCH_YES_OPTIMUM_Default, !- Name
  {a3538917-cec6-438b-8226-eb0bc768cd3b}, !- Schedule Type Limits Name
  ,                                       !- Interpolate to Timestep
  24,                                     !- Hour 1
  0,                                      !- Minute 1
  15.6;                                   !- Value Until Time 1

OS:Schedule:Day,
  {4f2dd892-1c77-4863-a3fa-9778934404fb}, !- Handle
  OfficeMedium HTGSETP_SCH_YES_OPTIMUM_Default_SmrDsn, !- Name
  {a3538917-cec6-438b-8226-eb0bc768cd3b}, !- Schedule Type Limits Name
  ,                                       !- Interpolate to Timestep
  24,                                     !- Hour 1
  0,                                      !- Minute 1
  15.6;                                   !- Value Until Time 1

OS:Schedule:Day,
  {2b16d86a-85b5-4672-92ce-87d100ca067c}, !- Handle
  OfficeMedium HTGSETP_SCH_YES_OPTIMUM_WntrDsn, !- Name
  {a3538917-cec6-438b-8226-eb0bc768cd3b}, !- Schedule Type Limits Name
  ,                                       !- Interpolate to Timestep
  5,                                      !- Hour 1
  0,                                      !- Minute 1
  15.6,                                   !- Value Until Time 1
  6,                                      !- Hour 2
  0,                                      !- Minute 2
  17.6,                                   !- Value Until Time 2
  7,                                      !- Hour 3
  0,                                      !- Minute 3
  19.6,                                   !- Value Until Time 3
  22,                                     !- Hour 4
  0,                                      !- Minute 4
  21,                                     !- Value Until Time 4
  24,                                     !- Hour 5
  0,                                      !- Minute 5
  15.6;                                   !- Value Until Time 5

OS:Schedule:Day,
  {4ae51243-6775-4359-a8f0-1cae5dd9fcaa}, !- Handle
  OfficeMedium HTGSETP_SCH_YES_OPTIMUM_Wkdy, !- Name
  {a3538917-cec6-438b-8226-eb0bc768cd3b}, !- Schedule Type Limits Name
  ,                                       !- Interpolate to Timestep
  5,                                      !- Hour 1
  0,                                      !- Minute 1
  15.6,                                   !- Value Until Time 1
  6,                                      !- Hour 2
  0,                                      !- Minute 2
  17.8,                                   !- Value Until Time 2
  7,                                      !- Hour 3
  0,                                      !- Minute 3
  20,                                     !- Value Until Time 3
  22,                                     !- Hour 4
  0,                                      !- Minute 4
  21,                                     !- Value Until Time 4
  24,                                     !- Hour 5
  0,                                      !- Minute 5
  15.6;                                   !- Value Until Time 5

OS:Schedule:Day,
  {c08ae264-a0af-437a-b801-49d4d27fdfa0}, !- Handle
  OfficeMedium HTGSETP_SCH_YES_OPTIMUM_Sat, !- Name
  {a3538917-cec6-438b-8226-eb0bc768cd3b}, !- Schedule Type Limits Name
  ,                                       !- Interpolate to Timestep
  5,                                      !- Hour 1
  0,                                      !- Minute 1
  15.6,                                   !- Value Until Time 1
  6,                                      !- Hour 2
  0,                                      !- Minute 2
  17.8,                                   !- Value Until Time 2
  7,                                      !- Hour 3
  0,                                      !- Minute 3
  20,                                     !- Value Until Time 3
  17,                                     !- Hour 4
  0,                                      !- Minute 4
  21,                                     !- Value Until Time 4
  24,                                     !- Hour 5
  0,                                      !- Minute 5
  15.6;                                   !- Value Until Time 5

OS:Schedule:Day,
  {c53b9acb-6981-4427-b1b9-4a02e7e00f85}, !- Handle
  OfficeMedium HTGSETP_SCH_YES_OPTIMUM_Default 1, !- Name
  {a3538917-cec6-438b-8226-eb0bc768cd3b}, !- Schedule Type Limits Name
  ,                                       !- Interpolate to Timestep
  24,                                     !- Hour 1
  0,                                      !- Minute 1
  15.6;                                   !- Value Until Time 1

OS:Schedule:Day,
  {798ed081-cd7c-40c0-9711-b24eb977af06}, !- Handle
  OfficeMedium HTGSETP_SCH_YES_OPTIMUM_Default_SmrDsn 1, !- Name
  {a3538917-cec6-438b-8226-eb0bc768cd3b}, !- Schedule Type Limits Name
  ,                                       !- Interpolate to Timestep
  24,                                     !- Hour 1
  0,                                      !- Minute 1
  15.6;                                   !- Value Until Time 1

OS:Schedule:Day,
  {5ea4530c-a4d5-4f11-b9c1-68443146a5a5}, !- Handle
  OfficeMedium HTGSETP_SCH_YES_OPTIMUM_WntrDsn 1, !- Name
  {a3538917-cec6-438b-8226-eb0bc768cd3b}, !- Schedule Type Limits Name
  ,                                       !- Interpolate to Timestep
  5,                                      !- Hour 1
  0,                                      !- Minute 1
  15.6,                                   !- Value Until Time 1
  6,                                      !- Hour 2
  0,                                      !- Minute 2
  17.6,                                   !- Value Until Time 2
  7,                                      !- Hour 3
  0,                                      !- Minute 3
  19.6,                                   !- Value Until Time 3
  22,                                     !- Hour 4
  0,                                      !- Minute 4
  21,                                     !- Value Until Time 4
  24,                                     !- Hour 5
  0,                                      !- Minute 5
  15.6;                                   !- Value Until Time 5

OS:Schedule:Rule,
  {032a4c3c-9d19-4cb3-8fca-e3bd049ecaa1}, !- Handle
  Schedule Rule 3,                        !- Name
  {445f3cd4-c793-4c17-b4b8-32874f5f6c6a}, !- Schedule Ruleset Name
  0,                                      !- Rule Order
  {6105c3b5-7772-459a-a379-a32ad593ab26}, !- Day Schedule Name
  No,                                     !- Apply Sunday
  Yes,                                    !- Apply Monday
  Yes,                                    !- Apply Tuesday
  Yes,                                    !- Apply Wednesday
  Yes,                                    !- Apply Thursday
  Yes,                                    !- Apply Friday
  No,                                     !- Apply Saturday
  DateRange,                              !- Date Specification Type
  1,                                      !- Start Month
  1,                                      !- Start Day
  12,                                     !- End Month
  31;                                     !- End Day

OS:Schedule:Day,
  {6105c3b5-7772-459a-a379-a32ad593ab26}, !- Handle
  Schedule Day 5,                         !- Name
  {a3538917-cec6-438b-8226-eb0bc768cd3b}, !- Schedule Type Limits Name
  ,                                       !- Interpolate to Timestep
  5,                                      !- Hour 1
  0,                                      !- Minute 1
  15.6,                                   !- Value Until Time 1
  6,                                      !- Hour 2
  0,                                      !- Minute 2
  17.8,                                   !- Value Until Time 2
  7,                                      !- Hour 3
  0,                                      !- Minute 3
  20,                                     !- Value Until Time 3
  22,                                     !- Hour 4
  0,                                      !- Minute 4
  21,                                     !- Value Until Time 4
  24,                                     !- Hour 5
  0,                                      !- Minute 5
  15.6;                                   !- Value Until Time 5

OS:Schedule:Rule,
  {e1a36e63-5655-4ccb-9692-a0fd80d642c6}, !- Handle
  Schedule Rule 4,                        !- Name
  {445f3cd4-c793-4c17-b4b8-32874f5f6c6a}, !- Schedule Ruleset Name
  1,                                      !- Rule Order
  {c28b1e76-7e59-4d05-a2ec-197cca17465a}, !- Day Schedule Name
  No,                                     !- Apply Sunday
  No,                                     !- Apply Monday
  No,                                     !- Apply Tuesday
  No,                                     !- Apply Wednesday
  No,                                     !- Apply Thursday
  No,                                     !- Apply Friday
  Yes,                                    !- Apply Saturday
  DateRange,                              !- Date Specification Type
  1,                                      !- Start Month
  1,                                      !- Start Day
  12,                                     !- End Month
  31;                                     !- End Day

OS:Schedule:Day,
  {c28b1e76-7e59-4d05-a2ec-197cca17465a}, !- Handle
  Schedule Day 6,                         !- Name
  {a3538917-cec6-438b-8226-eb0bc768cd3b}, !- Schedule Type Limits Name
  ,                                       !- Interpolate to Timestep
  5,                                      !- Hour 1
  0,                                      !- Minute 1
  15.6,                                   !- Value Until Time 1
  6,                                      !- Hour 2
  0,                                      !- Minute 2
  17.8,                                   !- Value Until Time 2
  7,                                      !- Hour 3
  0,                                      !- Minute 3
  20,                                     !- Value Until Time 3
  17,                                     !- Hour 4
  0,                                      !- Minute 4
  21,                                     !- Value Until Time 4
  24,                                     !- Hour 5
  0,                                      !- Minute 5
  15.6;                                   !- Value Until Time 5

OS:Schedule:Ruleset,
  {471af674-71dd-4d93-b9c3-b56a8b8feb70}, !- Handle
  Generic Office Equipment,               !- Name
  {e81886ea-1f3c-45ea-92e2-4f0c4f226dda}, !- Schedule Type Limits Name
  {5e2621b5-5c1b-43f2-bc71-35d1e835d8b9}, !- Default Day Schedule Name
  {6d0adcea-6701-4909-a93a-be4cb8cff2d3}, !- Summer Design Day Schedule Name
  {a6da9ca8-2499-4bc0-992a-39d4e8d2a9e0}, !- Winter Design Day Schedule Name
  {2d3b91d0-668d-4cc0-ab96-1e39ccb275e0}; !- Holiday Schedule Name

OS:Schedule:Day,
  {5e2621b5-5c1b-43f2-bc71-35d1e835d8b9}, !- Handle
  Schedule Day 7,                         !- Name
  {e81886ea-1f3c-45ea-92e2-4f0c4f226dda}, !- Schedule Type Limits Name
  ,                                       !- Interpolate to Timestep