
OS:Version,
  {8f5b5a8c-eecd-47c4-973b-9ff6a67ec9f1}, !- Handle
  3.0.1;                                  !- Version Identifier

OS:Building,
  {67dcb825-7de5-421f-941d-6def7aca3f34}, !- Handle
  Building 1,                             !- Name
  ,                                       !- Building Sector Type
  -0,                                     !- North Axis {deg}
  ,                                       !- Nominal Floor to Floor Height {m}
  ,                                       !- Space Type Name
  {b3e5bbc6-24eb-4628-94b4-b27f454d74bd}, !- Default Construction Set Name
  ,                                       !- Default Schedule Set Name
  ,                                       !- Standards Number of Stories
  ,                                       !- Standards Number of Above Ground Stories
  ,                                       !- Standards Template
  MediumOffice;                           !- Standards Building Type

OS:Facility,
  {8c11a36d-984d-42f6-abb9-5cdfb4208297}; !- Handle

OS:Site,
  {4e6adab2-32af-4771-9251-b1c4e31a95ac}, !- Handle
  Site 1,                                 !- Name
  ,                                       !- Latitude {deg}
  ,                                       !- Longitude {deg}
  ,                                       !- Time Zone {hr}
  ,                                       !- Elevation {m}
  City;                                   !- Terrain

OS:SimulationControl,
  {c2ab534c-1d63-474d-aea8-8bc4b501f52b}, !- Handle
  Yes,                                    !- Do Zone Sizing Calculation
  Yes,                                    !- Do System Sizing Calculation
  Yes,                                    !- Do Plant Sizing Calculation
  No,                                     !- Run Simulation for Sizing Periods
  Yes,                                    !- Run Simulation for Weather File Run Periods
  ,                                       !- Loads Convergence Tolerance Value {W}
  ,                                       !- Temperature Convergence Tolerance Value {deltaC}
  FullExteriorWithReflections;            !- Solar Distribution

OS:Sizing:Parameters,
  {307b3b77-44f2-48e9-875e-58aba67337bb}, !- Handle
  1.25,                                   !- Heating Sizing Factor
  1.15;                                   !- Cooling Sizing Factor

OS:Timestep,
  {18606459-9ce1-42a5-9032-20e82e972316}, !- Handle
  6;                                      !- Number of Timesteps per Hour

OS:ShadowCalculation,
  {ff171e17-5f78-4060-8f72-2446983e65a2}, !- Handle
  PolygonClipping,                        !- Shading Calculation Method
  Periodic,                               !- Shading Calculation Update Frequency Method
  30,                                     !- Shading Calculation Update Frequency
  15000,                                  !- Maximum Figures in Shadow Overlap Calculations
  ,                                       !- Polygon Clipping Algorithm
  512,                                    !- Pixel Counting Resolution
  ,                                       !- Sky Diffuse Modeling Algorithm
  No,                                     !- Output External Shading Calculation Results
  No,                                     !- Disable Self-Shading Within Shading Zone Groups
  No;                                     !- Disable Self-Shading From Shading Zone Groups to Other Zones

OS:HeatBalanceAlgorithm,
  {d7dd0235-77cf-40ab-90b5-0bd405bad760}, !- Handle
  ConductionTransferFunction,             !- Algorithm
  200;                                    !- Surface Temperature Upper Limit {C}

OS:RunPeriod,
  {9016c250-015c-42fd-b1e5-ad70c0694971}, !- Handle
  Run Period 1,                           !- Name
  1,                                      !- Begin Month
  1,                                      !- Begin Day of Month
  1,                                      !- End Month
  31,                                     !- End Day of Month
  ,                                       !- Use Weather File Holidays and Special Days
  ,                                       !- Use Weather File Daylight Saving Period
  ,                                       !- Apply Weekend Holiday Rule
  ,                                       !- Use Weather File Rain Indicators
  ,                                       !- Use Weather File Snow Indicators
  ;                                       !- Number of Times Runperiod to be Repeated

OS:LifeCycleCost:Parameters,
  {8dd70d59-87a9-4c5c-a7dc-55e66c0077d7}, !- Handle
  ,                                       !- Analysis Type
  ,                                       !- Discounting Convention
  ,                                       !- Inflation Approach
  ,                                       !- Real Discount Rate
  ,                                       !- Nominal Discount Rate
  ,                                       !- Inflation
  ,                                       !- Base Date Month
  ,                                       !- Base Date Year
  ,                                       !- Service Date Month
  ,                                       !- Service Date Year
  ;                                       !- Length of Study Period in Years

OS:WeatherFile,
  {c946e14c-3b5b-4cf5-90e3-3146cc79971e}, !- Handle
  Boston Logan IntL Arpt,                 !- City
  MA,                                     !- State Province Region
  USA,                                    !- Country
  TMY3,                                   !- Data Source
  725090,                                 !- WMO Number
  42.37,                                  !- Latitude {deg}
  -71.02,                                 !- Longitude {deg}
  -5,                                     !- Time Zone {hr}
  6,                                      !- Elevation {m}
  C:/Users/Administrator/ladybug_tools/resources/weather/USA_MA_Boston-Logan.Intl.AP.725090_TMY3/USA_MA_Boston-Logan.Intl.AP.725090_TMY3.epw, !- Url
  B65824C3;                               !- Checksum

OS:ScheduleTypeLimits,
  {4f6bcdbd-eef4-415c-834b-c22afe6e9530}, !- Handle
  Temperature,                            !- Name
  -273.15,                                !- Lower Limit Value
  ,                                       !- Upper Limit Value
  Continuous,                             !- Numeric Type
  Temperature;                            !- Unit Type

OS:ScheduleTypeLimits,
  {dee6669c-078f-484b-8527-7cc9ca749f89}, !- Handle
  Activity Level,                         !- Name
  0,                                      !- Lower Limit Value
  ,                                       !- Upper Limit Value
  Continuous,                             !- Numeric Type
  ActivityLevel;                          !- Unit Type

OS:ScheduleTypeLimits,
  {c03778fd-c2a0-499a-b27e-00aa4d2ffbbe}, !- Handle
  Fractional,                             !- Name
  0,                                      !- Lower Limit Value
  1,                                      !- Upper Limit Value
  Continuous,                             !- Numeric Type
  Dimensionless;                          !- Unit Type

OS:Schedule:Ruleset,
  {326b3424-9392-45dd-9047-8c5955f81c46}, !- Handle
  Generic Office Infiltration,            !- Name
  {c03778fd-c2a0-499a-b27e-00aa4d2ffbbe}, !- Schedule Type Limits Name
  {e56544f6-12e9-4d76-92bc-091ba455f15d}, !- Default Day Schedule Name
  {3982e97c-de95-48d6-96af-51a04dfafc4e}, !- Summer Design Day Schedule Name
  {afc379b4-7e35-4c6a-97dd-419b5590f528}, !- Winter Design Day Schedule Name
  {4d86eb65-a4df-4439-b5dd-35822f392f78}; !- Holiday Schedule Name

OS:Schedule:Day,
  {e56544f6-12e9-4d76-92bc-091ba455f15d}, !- Handle
  Schedule Day 1,                         !- Name
  {c03778fd-c2a0-499a-b27e-00aa4d2ffbbe}, !- Schedule Type Limits Name
  ,                                       !- Interpolate to Timestep
  24,                                     !- Hour 1
  0,                                      !- Minute 1
  1;                                      !- Value Until Time 1

OS:Schedule:Day,
  {12f0a3e1-6aa8-4e74-8dfa-bd234579544e}, !- Handle
  OfficeMedium INFIL_SCH_PNNL_Default,    !- Name
  {c03778fd-c2a0-499a-b27e-00aa4d2ffbbe}, !- Schedule Type Limits Name
  ,                                       !- Interpolate to Timestep
  24,                                     !- Hour 1
  0,                                      !- Minute 1
  1;                                      !- Value Until Time 1

OS:Schedule:Day,
  {02d64d23-c208-4b72-8dda-6e5e438d8d74}, !- Handle
  OfficeMedium INFIL_SCH_PNNL_Wkdy_SmrDsn, !- Name
  {c03778fd-c2a0-499a-b27e-00aa4d2ffbbe}, !- Schedule Type Limits Name
  ,                                       !- Interpolate to Timestep
  6,                                      !- Hour 1
  0,                                      !- Minute 1
  1,                                      !- Value Until Time 1
  22,                                     !- Hour 2
  0,                                      !- Minute 2
  0.25,                                   !- Value Until Time 2
  24,                                     !- Hour 3
  0,                                      !- Minute 3
  1;                                      !- Value Until Time 3

OS:Schedule:Day,
  {3ee23cdc-5513-4ff7-b089-1f8a25e93bdf}, !- Handle
  OfficeMedium INFIL_SCH_PNNL_Sat_WntrDsn, !- Name
  {c03778fd-c2a0-499a-b27e-00aa4d2ffbbe}, !- Schedule Type Limits Name
  ,                                       !- Interpolate to Timestep
  6,                                      !- Hour 1
  0,                                      !- Minute 1
  1,                                      !- Value Until Time 1
  18,                                     !- Hour 2
  0,                                      !- Minute 2
  0.25,                                   !- Value Until Time 2
  24,                                     !- Hour 3
  0,                                      !- Minute 3
  1;                                      !- Value Until Time 3

OS:Schedule:Day,
  {c09b31c4-8d9a-4df6-88da-aa20ba4c567f}, !- Handle
  OfficeMedium INFIL_SCH_PNNL_Wkdy,       !- Name
  {c03778fd-c2a0-499a-b27e-00aa4d2ffbbe}, !- Schedule Type Limits Name
  ,                                       !- Interpolate to Timestep
  6,                                      !- Hour 1
  0,                                      !- Minute 1
  1,                                      !- Value Until Time 1
  22,                                     !- Hour 2
  0,                                      !- Minute 2
  0.25,                                   !- Value Until Time 2
  24,                                     !- Hour 3
  0,                                      !- Minute 3
  1;                                      !- Value Until Time 3

OS:Schedule:Day,
  {6dc13e70-c714-435a-993f-4cf1ac19e18c}, !- Handle
  OfficeMedium INFIL_SCH_PNNL_Sat,        !- Name
  {c03778fd-c2a0-499a-b27e-00aa4d2ffbbe}, !- Schedule Type Limits Name
  ,                                       !- Interpolate to Timestep
  6,                                      !- Hour 1
  0,                                      !- Minute 1
  1,                                      !- Value Until Time 1
  18,                                     !- Hour 2
  0,                                      !- Minute 2
  0.25,                                   !- Value Until Time 2
  24,                                     !- Hour 3
  0,                                      !- Minute 3
  1;                                      !- Value Until Time 3

OS:Schedule:Day,
  {4d86eb65-a4df-4439-b5dd-35822f392f78}, !- Handle
  OfficeMedium INFIL_SCH_PNNL_Default 1,  !- Name
  {c03778fd-c2a0-499a-b27e-00aa4d2ffbbe}, !- Schedule Type Limits Name
  ,                                       !- Interpolate to Timestep
  24,                                     !- Hour 1
  0,                                      !- Minute 1
  1;                                      !- Value Until Time 1

OS:Schedule:Day,
  {3982e97c-de95-48d6-96af-51a04dfafc4e}, !- Handle
  OfficeMedium INFIL_SCH_PNNL_Wkdy_SmrDsn 1, !- Name
  {c03778fd-c2a0-499a-b27e-00aa4d2ffbbe}, !- Schedule Type Limits Name
  ,                                       !- Interpolate to Timestep
  6,                                      !- Hour 1
  0,                                      !- Minute 1
  1,                                      !- Value Until Time 1
  22,                                     !- Hour 2
  0,                                      !- Minute 2
  0.25,                                   !- Value Until Time 2
  24,                                     !- Hour 3
  0,                                      !- Minute 3
  1;                                      !- Value Until Time 3

OS:Schedule:Day,
  {afc379b4-7e35-4c6a-97dd-419b5590f528}, !- Handle
  OfficeMedium INFIL_SCH_PNNL_Sat_WntrDsn 1, !- Name
  {c03778fd-c2a0-499a-b27e-00aa4d2ffbbe}, !- Schedule Type Limits Name
  ,                                       !- Interpolate to Timestep
  6,                                      !- Hour 1
  0,                                      !- Minute 1
  1,                                      !- Value Until Time 1
  18,                                     !- Hour 2
  0,                                      !- Minute 2
  0.25,                                   !- Value Until Time 2
  24,                                     !- Hour 3
  0,                                      !- Minute 3
  1;                                      !- Value Until Time 3

OS:Schedule:Rule,
  {b1088833-30c2-4013-b2a0-7401d5512f80}, !- Handle
  Schedule Rule 1,                        !- Name
  {326b3424-9392-45dd-9047-8c5955f81c46}, !- Schedule Ruleset Name
  0,                                      !- Rule Order
  {bed35df6-723c-4c5d-b622-c7cea615e0f8}, !- Day Schedule Name
  No,                                     !- Apply Sunday
  Yes,                                    !- Apply Monday
  Yes,                                    !- Apply Tuesday
  Yes,                                    !- Apply Wednesday
  Yes,                                    !- Apply Thursday
  Yes,                                    !- Apply Friday
  No,                                     !- Apply Saturday
  DateRange,                              !- Date Specification Type
  1,                                      !- Start Month
  1,                                      !- Start Day
  12,                                     !- End Month
  31;                                     !- End Day

OS:Schedule:Day,
  {bed35df6-723c-4c5d-b622-c7cea615e0f8}, !- Handle
  Schedule Day 2,                         !- Name
  {c03778fd-c2a0-499a-b27e-00aa4d2ffbbe}, !- Schedule Type Limits Name
  ,                                       !- Interpolate to Timestep
  6,                                      !- Hour 1
  0,                                      !- Minute 1
  1,                                      !- Value Until Time 1
  22,                                     !- Hour 2
  0,                                      !- Minute 2
  0.25,                                   !- Value Until Time 2
  24,                                     !- Hour 3
  0,                                      !- Minute 3
  1;                                      !- Value Until Time 3

OS:YearDescription,
  {db455967-d11b-49de-8fab-5f8f585deceb}, !- Handle
  ,                                       !- Calendar Year
  Sunday;                                 !- Day of Week for Start Day

OS:Schedule:Rule,
  {cbc391f8-2ad2-40f1-a2ee-fbf191a8ec98}, !- Handle
  Schedule Rule 2,                        !- Name
  {326b3424-9392-45dd-9047-8c5955f81c46}, !- Schedule Ruleset Name
  1,                                      !- Rule Order
  {b887466e-e0da-4239-890f-2d8beb3821e5}, !- Day Schedule Name
  No,                                     !- Apply Sunday
  No,                                     !- Apply Monday
  No,                                     !- Apply Tuesday
  No,                                     !- Apply Wednesday
  No,                                     !- Apply Thursday
  No,                                     !- Apply Friday
  Yes,                                    !- Apply Saturday
  DateRange,                              !- Date Specification Type
  1,                                      !- Start Month
  1,                                      !- Start Day
  12,                                     !- End Month
  31;                                     !- End Day

OS:Schedule:Day,
  {b887466e-e0da-4239-890f-2d8beb3821e5}, !- Handle
  Schedule Day 3,                         !- Name
  {c03778fd-c2a0-499a-b27e-00aa4d2ffbbe}, !- Schedule Type Limits Name
  ,                                       !- Interpolate to Timestep
  6,                                      !- Hour 1
  0,                                      !- Minute 1
  1,                                      !- Value Until Time 1
  18,                                     !- Hour 2
  0,                                      !- Minute 2
  0.25,                                   !- Value Until Time 2
  24,                                     !- Hour 3
  0,                                      !- Minute 3
  1;                                      !- Value Until Time 3

OS:Schedule:Ruleset,
  {a00a4e17-a3e3-4676-941f-bf3e3fd91fb5}, !- Handle
  Generic Office Heating,                 !- Name
  {4f6bcdbd-eef4-415c-834b-c22afe6e9530}, !- Schedule Type Limits Name
  {d71e3253-18d9-45ea-a957-5c1a8d589ab8}, !- Default Day Schedule Name
  {150f9302-7e7c-4215-aaaf-f5ae7b0cd38a}, !- Summer Design Day Schedule Name
  {f5d28102-8d3d-4b15-9490-df438b2bfc90}, !- Winter Design Day Schedule Name
  {087a8e57-0536-4f8e-9326-a261f2c99834}; !- Holiday Schedule Name

OS:Schedule:Day,
  {d71e3253-18d9-45ea-a957-5c1a8d589ab8}, !- Handle
  Schedule Day 4,                         !- Name
  {4f6bcdbd-eef4-415c-834b-c22afe6e9530}, !- Schedule Type Limits Name
  ,                                       !- Interpolate to Timestep
  24,                                     !- Hour 1
  0,                                      !- Minute 1
  15.6;                                   !- Value Until Time 1

OS:Schedule:Day,
  {034e7e0d-5cfb-4300-bd22-febe6ec0cee1}, !- Handle
  OfficeMedium HTGSETP_SCH_YES_OPTIMUM_Default, !- Name
  {4f6bcdbd-eef4-415c-834b-c22afe6e9530}, !- Schedule Type Limits Name
  ,                                       !- Interpolate to Timestep
  24,                                     !- Hour 1
  0,                                      !- Minute 1
  15.6;                                   !- Value Until Time 1

OS:Schedule:Day,
  {1af15048-5fb9-4a81-a391-3e27ce299886}, !- Handle
  OfficeMedium HTGSETP_SCH_YES_OPTIMUM_Default_SmrDsn, !- Name
  {4f6bcdbd-eef4-415c-834b-c22afe6e9530}, !- Schedule Type Limits Name
  ,                                       !- Interpolate to Timestep
  24,                                     !- Hour 1
  0,                                      !- Minute 1
  15.6;                                   !- Value Until Time 1

OS:Schedule:Day,
  {e2e5d141-06e1-44be-85a5-07a90a09ccad}, !- Handle
  OfficeMedium HTGSETP_SCH_YES_OPTIMUM_WntrDsn, !- Name
  {4f6bcdbd-eef4-415c-834b-c22afe6e9530}, !- Schedule Type Limits Name
  ,                                       !- Interpolate to Timestep
  5,                                      !- Hour 1
  0,                                      !- Minute 1
  15.6,                                   !- Value Until Time 1
  6,                                      !- Hour 2
  0,                                      !- Minute 2
  17.6,                                   !- Value Until Time 2
  7,                                      !- Hour 3
  0,                                      !- Minute 3
  19.6,                                   !- Value Until Time 3
  22,                                     !- Hour 4
  0,                                      !- Minute 4
  21,                                     !- Value Until Time 4
  24,                                     !- Hour 5
  0,                                      !- Minute 5
  15.6;                                   !- Value Until Time 5

OS:Schedule:Day,
  {90d54546-920c-43a6-bdeb-20efa0e906c4}, !- Handle
  OfficeMedium HTGSETP_SCH_YES_OPTIMUM_Wkdy, !- Name
  {4f6bcdbd-eef4-415c-834b-c22afe6e9530}, !- Schedule Type Limits Name
  ,                                       !- Interpolate to Timestep
  5,                                      !- Hour 1
  0,                                      !- Minute 1
  15.6,                                   !- Value Until Time 1
  6,                                      !- Hour 2
  0,                                      !- Minute 2
  17.8,                                   !- Value Until Time 2
  7,                                      !- Hour 3
  0,                                      !- Minute 3
  20,                                     !- Value Until Time 3
  22,                                     !- Hour 4
  0,                                      !- Minute 4
  21,                                     !- Value Until Time 4
  24,                                     !- Hour 5
  0,                                      !- Minute 5
  15.6;                                   !- Value Until Time 5

OS:Schedule:Day,
  {667af03a-6f48-478d-a459-2c9d847dd8ab}, !- Handle
  OfficeMedium HTGSETP_SCH_YES_OPTIMUM_Sat, !- Name
  {4f6bcdbd-eef4-415c-834b-c22afe6e9530}, !- Schedule Type Limits Name
  ,                                       !- Interpolate to Timestep
  5,                                      !- Hour 1
  0,                                      !- Minute 1
  15.6,                                   !- Value Until Time 1
  6,                                      !- Hour 2
  0,                                      !- Minute 2
  17.8,                                   !- Value Until Time 2
  7,                                      !- Hour 3
  0,                                      !- Minute 3
  20,                                     !- Value Until Time 3
  17,                                     !- Hour 4
  0,                                      !- Minute 4
  21,                                     !- Value Until Time 4
  24,                                     !- Hour 5
  0,                                      !- Minute 5
  15.6;                                   !- Value Until Time 5

OS:Schedule:Day,
  {087a8e57-0536-4f8e-9326-a261f2c99834}, !- Handle
  OfficeMedium HTGSETP_SCH_YES_OPTIMUM_Default 1, !- Name
  {4f6bcdbd-eef4-415c-834b-c22afe6e9530}, !- Schedule Type Limits Name
  ,                                       !- Interpolate to Timestep
  24,                                     !- Hour 1
  0,                                      !- Minute 1
  15.6;                                   !- Value Until Time 1

OS:Schedule:Day,
  {150f9302-7e7c-4215-aaaf-f5ae7b0cd38a}, !- Handle
  OfficeMedium HTGSETP_SCH_YES_OPTIMUM_Default_SmrDsn 1, !- Name
  {4f6bcdbd-eef4-415c-834b-c22afe6e9530}, !- Schedule Type Limits Name
  ,                                       !- Interpolate to Timestep
  24,                                     !- Hour 1
  0,                                      !- Minute 1
  15.6;                                   !- Value Until Time 1

OS:Schedule:Day,
  {f5d28102-8d3d-4b15-9490-df438b2bfc90}, !- Handle
  OfficeMedium HTGSETP_SCH_YES_OPTIMUM_WntrDsn 1, !- Name
  {4f6bcdbd-eef4-415c-834b-c22afe6e9530}, !- Schedule Type Limits Name
  ,                                       !- Interpolate to Timestep
  5,                                      !- Hour 1
  0,                                      !- Minute 1
  15.6,                                   !- Value Until Time 1
  6,                                      !- Hour 2
  0,                                      !- Minute 2
  17.6,                                   !- Value Until Time 2
  7,                                      !- Hour 3
  0,                                      !- Minute 3
  19.6,                                   !- Value Until Time 3
  22,                                     !- Hour 4
  0,                                      !- Minute 4
  21,                                     !- Value Until Time 4
  24,                                     !- Hour 5
  0,                                      !- Minute 5
  15.6;                                   !- Value Until Time 5

OS:Schedule:Rule,
  {c5d78b9e-5adc-4a51-a4df-dcb5e65ecec7}, !- Handle
  Schedule Rule 3,                        !- Name
  {a00a4e17-a3e3-4676-941f-bf3e3fd91fb5}, !- Schedule Ruleset Name
  0,                                      !- Rule Order
  {e4e33cba-5102-467e-9660-c48e8e15c22c}, !- Day Schedule Name
  No,                                     !- Apply Sunday
  Yes,                                    !- Apply Monday
  Yes,                                    !- Apply Tuesday
  Yes,                                    !- Apply Wednesday
  Yes,                                    !- Apply Thursday
  Yes,                                    !- Apply Friday
  No,                                     !- Apply Saturday
  DateRange,                              !- Date Specification Type
  1,                                      !- Start Month
  1,                                      !- Start Day
  12,                                     !- End Month
  31;                                     !- End Day

OS:Schedule:Day,
  {e4e33cba-5102-467e-9660-c48e8e15c22c}, !- Handle
  Schedule Day 5,                         !- Name
  {4f6bcdbd-eef4-415c-834b-c22afe6e9530}, !- Schedule Type Limits Name
  ,                                       !- Interpolate to Timestep
  5,                                      !- Hour 1
  0,                                      !- Minute 1
  15.6,                                   !- Value Until Time 1
  6,                                      !- Hour 2
  0,                                      !- Minute 2
  17.8,                                   !- Value Until Time 2
  7,                                      !- Hour 3
  0,                                      !- Minute 3
  20,                                     !- Value Until Time 3
  22,                                     !- Hour 4
  0,                                      !- Minute 4
  21,                                     !- Value Until Time 4
  24,                                     !- Hour 5
  0,                                      !- Minute 5
  15.6;                                   !- Value Until Time 5

OS:Schedule:Rule,
  {821518a1-bced-42ec-980a-916153261b63}, !- Handle
  Schedule Rule 4,                        !- Name
  {a00a4e17-a3e3-4676-941f-bf3e3fd91fb5}, !- Schedule Ruleset Name
  1,                                      !- Rule Order
  {d9081396-d722-4e06-be85-f99bbe96b7d2}, !- Day Schedule Name
  No,                                     !- Apply Sunday
  No,                                     !- Apply Monday
  No,                                     !- Apply Tuesday
  No,                                     !- Apply Wednesday
  No,                                     !- Apply Thursday
  No,                                     !- Apply Friday
  Yes,                                    !- Apply Saturday
  DateRange,                              !- Date Specification Type
  1,                                      !- Start Month
  1,                                      !- Start Day
  12,                                     !- End Month
  31;                                     !- End Day

OS:Schedule:Day,
  {d9081396-d722-4e06-be85-f99bbe96b7d2}, !- Handle
  Schedule Day 6,                         !- Name
  {4f6bcdbd-eef4-415c-834b-c22afe6e9530}, !- Schedule Type Limits Name
  ,                                       !- Interpolate to Timestep
  5,                                      !- Hour 1
  0,                                      !- Minute 1
  15.6,                                   !- Value Until Time 1
  6,                                      !- Hour 2
  0,                                      !- Minute 2
  17.8,                                   !- Value Until Time 2
  7,                                      !- Hour 3
  0,                                      !- Minute 3
  20,                                     !- Value Until Time 3
  17,                                     !- Hour 4
  0,                                      !- Minute 4
  21,                                     !- Value Until Time 4
  24,                                     !- Hour 5
  0,                                      !- Minute 5
  15.6;                                   !- Value Until Time 5

OS:Schedule:Ruleset,
  {45ba175e-bf0c-454d-bea6-7312d19af12e}, !- Handle
  Generic Office Equipment,               !- Name
  {c03778fd-c2a0-499a-b27e-00aa4d2ffbbe}, !- Schedule Type Limits Name
  {2ba1e450-a618-4ffb-aae9-8073f89af422}, !- Default Day Schedule Name
  {9ca41eeb-4320-4610-b07c-99c987c5ce8e}, !- Summer Design Day Schedule Name
  {7d1c950f-bc52-4d00-8592-ea266fc23f43}, !- Winter Design Day Schedule Name
  {e16adcd5-5d20-4273-a688-ca3ec8c58b4a}; !- Holiday Schedule Name

OS:Schedule:Day,
  {2ba1e450-a618-4ffb-aae9-8073f89af422}, !- Handle
  Schedule Day 7,                         !- Name
  {c03778fd-c2a0-499a-b27e-00aa4d2ffbbe}, !- Schedule Type Limits Name
  ,                                       !- Interpolate to Timestep