
OS:Version,
  {0aeb011d-9a79-465d-9029-cedfe7803fc8}, !- Handle
  3.0.1;                                  !- Version Identifier

OS:Building,
  {2ebc8397-50d6-4dd5-ae0f-9467cfb07bee}, !- Handle
  Building 1,                             !- Name
  ,                                       !- Building Sector Type
  -0,                                     !- North Axis {deg}
  ,                                       !- Nominal Floor to Floor Height {m}
  ,                                       !- Space Type Name
  {16c00474-cd55-462e-a392-d42536843ece}, !- Default Construction Set Name
  ,                                       !- Default Schedule Set Name
  ,                                       !- Standards Number of Stories
  ,                                       !- Standards Number of Above Ground Stories
  ,                                       !- Standards Template
  MediumOffice;                           !- Standards Building Type

OS:Facility,
  {f8d29c18-1a59-4afb-b8ce-b7b6c88f99fa}; !- Handle

OS:Site,
  {ed696f27-4d10-4094-9503-b642f68f3b8e}, !- Handle
  Site 1,                                 !- Name
  ,                                       !- Latitude {deg}
  ,                                       !- Longitude {deg}
  ,                                       !- Time Zone {hr}
  ,                                       !- Elevation {m}
  City;                                   !- Terrain

OS:SimulationControl,
  {6def331e-b867-44e9-a1c0-6caee48d99e1}, !- Handle
  Yes,                                    !- Do Zone Sizing Calculation
  Yes,                                    !- Do System Sizing Calculation
  Yes,                                    !- Do Plant Sizing Calculation
  No,                                     !- Run Simulation for Sizing Periods
  Yes,                                    !- Run Simulation for Weather File Run Periods
  ,                                       !- Loads Convergence Tolerance Value {W}
  ,                                       !- Temperature Convergence Tolerance Value {deltaC}
  FullExteriorWithReflections;            !- Solar Distribution

OS:Sizing:Parameters,
  {fe6e04dd-c04b-4afe-84de-8a5dedf9da92}, !- Handle
  1.25,                                   !- Heating Sizing Factor
  1.15;                                   !- Cooling Sizing Factor

OS:Timestep,
  {a0b409a9-c449-42ce-a337-b0ace1d86ac5}, !- Handle
  6;                                      !- Number of Timesteps per Hour

OS:ShadowCalculation,
  {e1228435-c598-42a7-a2df-a9f5f3d7fea7}, !- Handle
  PolygonClipping,                        !- Shading Calculation Method
  Periodic,                               !- Shading Calculation Update Frequency Method
  30,                                     !- Shading Calculation Update Frequency
  15000,                                  !- Maximum Figures in Shadow Overlap Calculations
  ,                                       !- Polygon Clipping Algorithm
  512,                                    !- Pixel Counting Resolution
  ,                                       !- Sky Diffuse Modeling Algorithm
  No,                                     !- Output External Shading Calculation Results
  No,                                     !- Disable Self-Shading Within Shading Zone Groups
  No;                                     !- Disable Self-Shading From Shading Zone Groups to Other Zones

OS:HeatBalanceAlgorithm,
  {1e89be23-b2cb-4236-9036-7f17011320e6}, !- Handle
  ConductionTransferFunction,             !- Algorithm
  200;                                    !- Surface Temperature Upper Limit {C}

OS:RunPeriod,
  {8c2db330-5165-4443-a0c3-a645e1060e6f}, !- Handle
  Run Period 1,                           !- Name
  1,                                      !- Begin Month
  1,                                      !- Begin Day of Month
  1,                                      !- End Month
  31,                                     !- End Day of Month
  ,                                       !- Use Weather File Holidays and Special Days
  ,                                       !- Use Weather File Daylight Saving Period
  ,                                       !- Apply Weekend Holiday Rule
  ,                                       !- Use Weather File Rain Indicators
  ,                                       !- Use Weather File Snow Indicators
  ;                                       !- Number of Times Runperiod to be Repeated

OS:LifeCycleCost:Parameters,
  {bea557bf-e78d-4965-98ec-548d34599f90}, !- Handle
  ,                                       !- Analysis Type
  ,                                       !- Discounting Convention
  ,                                       !- Inflation Approach
  ,                                       !- Real Discount Rate
  ,                                       !- Nominal Discount Rate
  ,                                       !- Inflation
  ,                                       !- Base Date Month
  ,                                       !- Base Date Year
  ,                                       !- Service Date Month
  ,                                       !- Service Date Year
  ;                                       !- Length of Study Period in Years

OS:WeatherFile,
  {a11a3594-45fb-4d6b-b538-9c72718036b0}, !- Handle
  Boston Logan IntL Arpt,                 !- City
  MA,                                     !- State Province Region
  USA,                                    !- Country
  TMY3,                                   !- Data Source
  725090,                                 !- WMO Number
  42.37,                                  !- Latitude {deg}
  -71.02,                                 !- Longitude {deg}
  -5,                                     !- Time Zone {hr}
  6,                                      !- Elevation {m}
  C:/Users/Administrator/ladybug_tools/resources/weather/USA_MA_Boston-Logan.Intl.AP.725090_TMY3/USA_MA_Boston-Logan.Intl.AP.725090_TMY3.epw, !- Url
  B65824C3;                               !- Checksum

OS:ScheduleTypeLimits,
  {5fb5316c-189d-4440-85a7-7967a5ac19d3}, !- Handle
  Temperature,                            !- Name
  -273.15,                                !- Lower Limit Value
  ,                                       !- Upper Limit Value
  Continuous,                             !- Numeric Type
  Temperature;                            !- Unit Type

OS:ScheduleTypeLimits,
  {749a3112-d6c8-4857-90a4-85adab285006}, !- Handle
  Activity Level,                         !- Name
  0,                                      !- Lower Limit Value
  ,                                       !- Upper Limit Value
  Continuous,                             !- Numeric Type
  ActivityLevel;                          !- Unit Type

OS:ScheduleTypeLimits,
  {2c94b924-3179-47c1-91e5-28bb148d8496}, !- Handle
  Fractional,                             !- Name
  0,                                      !- Lower Limit Value
  1,                                      !- Upper Limit Value
  Continuous,                             !- Numeric Type
  Dimensionless;                          !- Unit Type

OS:Schedule:Ruleset,
  {c11adb8a-f774-45f8-ad7b-9a58617cbe4a}, !- Handle
  Generic Office Infiltration,            !- Name
  {2c94b924-3179-47c1-91e5-28bb148d8496}, !- Schedule Type Limits Name
  {7abf331f-ecf3-4dda-917a-c78eaf5c2ced}, !- Default Day Schedule Name
  {f9ae26e7-0d42-47ec-aa12-3998389e9c50}, !- Summer Design Day Schedule Name
  {33979ad6-daf1-4bbb-9bb1-f8ea78c98cb8}, !- Winter Design Day Schedule Name
  {8f8d054d-99d0-41c4-a241-ec127afed7d4}; !- Holiday Schedule Name

OS:Schedule:Day,
  {7abf331f-ecf3-4dda-917a-c78eaf5c2ced}, !- Handle
  Schedule Day 1,                         !- Name
  {2c94b924-3179-47c1-91e5-28bb148d8496}, !- Schedule Type Limits Name
  ,                                       !- Interpolate to Timestep
  24,                                     !- Hour 1
  0,                                      !- Minute 1
  1;                                      !- Value Until Time 1

OS:Schedule:Day,
  {0f81592b-5b59-477f-9879-09df3b5ef264}, !- Handle
  OfficeMedium INFIL_SCH_PNNL_Default,    !- Name
  {2c94b924-3179-47c1-91e5-28bb148d8496}, !- Schedule Type Limits Name
  ,                                       !- Interpolate to Timestep
  24,                                     !- Hour 1
  0,                                      !- Minute 1
  1;                                      !- Value Until Time 1

OS:Schedule:Day,
  {8270e940-eb24-4604-a316-997ac1ee96ce}, !- Handle
  OfficeMedium INFIL_SCH_PNNL_Wkdy_SmrDsn, !- Name
  {2c94b924-3179-47c1-91e5-28bb148d8496}, !- Schedule Type Limits Name
  ,                                       !- Interpolate to Timestep
  6,                                      !- Hour 1
  0,                                      !- Minute 1
  1,                                      !- Value Until Time 1
  22,                                     !- Hour 2
  0,                                      !- Minute 2
  0.25,                                   !- Value Until Time 2
  24,                                     !- Hour 3
  0,                                      !- Minute 3
  1;                                      !- Value Until Time 3

OS:Schedule:Day,
  {09f45703-cd8f-4b91-ab5c-d6dbcac02132}, !- Handle
  OfficeMedium INFIL_SCH_PNNL_Sat_WntrDsn, !- Name
  {2c94b924-3179-47c1-91e5-28bb148d8496}, !- Schedule Type Limits Name
  ,                                       !- Interpolate to Timestep
  6,                                      !- Hour 1
  0,                                      !- Minute 1
  1,                                      !- Value Until Time 1
  18,                                     !- Hour 2
  0,                                      !- Minute 2
  0.25,                                   !- Value Until Time 2
  24,                                     !- Hour 3
  0,                                      !- Minute 3
  1;                                      !- Value Until Time 3

OS:Schedule:Day,
  {ad1f5364-fc0b-4bd6-b1cb-f37aa143bedd}, !- Handle
  OfficeMedium INFIL_SCH_PNNL_Wkdy,       !- Name
  {2c94b924-3179-47c1-91e5-28bb148d8496}, !- Schedule Type Limits Name
  ,                                       !- Interpolate to Timestep
  6,                                      !- Hour 1
  0,                                      !- Minute 1
  1,                                      !- Value Until Time 1
  22,                                     !- Hour 2
  0,                                      !- Minute 2
  0.25,                                   !- Value Until Time 2
  24,                                     !- Hour 3
  0,                                      !- Minute 3
  1;                                      !- Value Until Time 3

OS:Schedule:Day,
  {b883cb33-3fd5-43b7-87da-8c6ed40c9695}, !- Handle
  OfficeMedium INFIL_SCH_PNNL_Sat,        !- Name
  {2c94b924-3179-47c1-91e5-28bb148d8496}, !- Schedule Type Limits Name
  ,                                       !- Interpolate to Timestep
  6,                                      !- Hour 1
  0,                                      !- Minute 1
  1,                                      !- Value Until Time 1
  18,                                     !- Hour 2
  0,                                      !- Minute 2
  0.25,                                   !- Value Until Time 2
  24,                                     !- Hour 3
  0,                                      !- Minute 3
  1;                                      !- Value Until Time 3

OS:Schedule:Day,
  {8f8d054d-99d0-41c4-a241-ec127afed7d4}, !- Handle
  OfficeMedium INFIL_SCH_PNNL_Default 1,  !- Name
  {2c94b924-3179-47c1-91e5-28bb148d8496}, !- Schedule Type Limits Name
  ,                                       !- Interpolate to Timestep
  24,                                     !- Hour 1
  0,                                      !- Minute 1
  1;                                      !- Value Until Time 1

OS:Schedule:Day,
  {f9ae26e7-0d42-47ec-aa12-3998389e9c50}, !- Handle
  OfficeMedium INFIL_SCH_PNNL_Wkdy_SmrDsn 1, !- Name
  {2c94b924-3179-47c1-91e5-28bb148d8496}, !- Schedule Type Limits Name
  ,                                       !- Interpolate to Timestep
  6,                                      !- Hour 1
  0,                                      !- Minute 1
  1,                                      !- Value Until Time 1
  22,                                     !- Hour 2
  0,                                      !- Minute 2
  0.25,                                   !- Value Until Time 2
  24,                                     !- Hour 3
  0,                                      !- Minute 3
  1;                                      !- Value Until Time 3

OS:Schedule:Day,
  {33979ad6-daf1-4bbb-9bb1-f8ea78c98cb8}, !- Handle
  OfficeMedium INFIL_SCH_PNNL_Sat_WntrDsn 1, !- Name
  {2c94b924-3179-47c1-91e5-28bb148d8496}, !- Schedule Type Limits Name
  ,                                       !- Interpolate to Timestep
  6,                                      !- Hour 1
  0,                                      !- Minute 1
  1,                                      !- Value Until Time 1
  18,                                     !- Hour 2
  0,                                      !- Minute 2
  0.25,                                   !- Value Until Time 2
  24,                                     !- Hour 3
  0,                                      !- Minute 3
  1;                                      !- Value Until Time 3

OS:Schedule:Rule,
  {0cbd54af-44d8-47c7-a0de-e4f5e968a33e}, !- Handle
  Schedule Rule 1,                        !- Name
  {c11adb8a-f774-45f8-ad7b-9a58617cbe4a}, !- Schedule Ruleset Name
  0,                                      !- Rule Order
  {6d36fd2b-d388-4f7b-83be-d16f30762b86}, !- Day Schedule Name
  No,                                     !- Apply Sunday
  Yes,                                    !- Apply Monday
  Yes,                                    !- Apply Tuesday
  Yes,                                    !- Apply Wednesday
  Yes,                                    !- Apply Thursday
  Yes,                                    !- Apply Friday
  No,                                     !- Apply Saturday
  DateRange,                              !- Date Specification Type
  1,                                      !- Start Month
  1,                                      !- Start Day
  12,                                     !- End Month
  31;                                     !- End Day

OS:Schedule:Day,
  {6d36fd2b-d388-4f7b-83be-d16f30762b86}, !- Handle
  Schedule Day 2,                         !- Name
  {2c94b924-3179-47c1-91e5-28bb148d8496}, !- Schedule Type Limits Name
  ,                                       !- Interpolate to Timestep
  6,                                      !- Hour 1
  0,                                      !- Minute 1
  1,                                      !- Value Until Time 1
  22,                                     !- Hour 2
  0,                                      !- Minute 2
  0.25,                                   !- Value Until Time 2
  24,                                     !- Hour 3
  0,                                      !- Minute 3
  1;                                      !- Value Until Time 3

OS:YearDescription,
  {bcd0a24d-54cd-4c47-a3ad-7cd49b210d52}, !- Handle
  ,                                       !- Calendar Year
  Sunday;                                 !- Day of Week for Start Day

OS:Schedule:Rule,
  {140821c3-555f-4ba8-b526-ae4fe4b7c434}, !- Handle
  Schedule Rule 2,                        !- Name
  {c11adb8a-f774-45f8-ad7b-9a58617cbe4a}, !- Schedule Ruleset Name
  1,                                      !- Rule Order
  {aafb263d-a74f-4c13-9502-265d03b3530d}, !- Day Schedule Name
  No,                                     !- Apply Sunday
  No,                                     !- Apply Monday
  No,                                     !- Apply Tuesday
  No,                                     !- Apply Wednesday
  No,                                     !- Apply Thursday
  No,                                     !- Apply Friday
  Yes,                                    !- Apply Saturday
  DateRange,                              !- Date Specification Type
  1,                                      !- Start Month
  1,                                      !- Start Day
  12,                                     !- End Month
  31;                                     !- End Day

OS:Schedule:Day,
  {aafb263d-a74f-4c13-9502-265d03b3530d}, !- Handle
  Schedule Day 3,                         !- Name
  {2c94b924-3179-47c1-91e5-28bb148d8496}, !- Schedule Type Limits Name
  ,                                       !- Interpolate to Timestep
  6,                                      !- Hour 1
  0,                                      !- Minute 1
  1,                                      !- Value Until Time 1
  18,                                     !- Hour 2
  0,                                      !- Minute 2
  0.25,                                   !- Value Until Time 2
  24,                                     !- Hour 3
  0,                                      !- Minute 3
  1;                                      !- Value Until Time 3

OS:Schedule:Ruleset,
  {81d948fb-6b70-464a-aa1f-fce7fcf0b761}, !- Handle
  Generic Office Heating,                 !- Name
  {5fb5316c-189d-4440-85a7-7967a5ac19d3}, !- Schedule Type Limits Name
  {b173070c-f9e5-4c6a-a2ae-ad6189d1281e}, !- Default Day Schedule Name
  {b8082f00-7a24-40be-ac9f-5c8227982e3b}, !- Summer Design Day Schedule Name
  {d8341162-1e55-4794-927e-f82c8a08917a}, !- Winter Design Day Schedule Name
  {0d93b93e-22fd-419e-b3c0-37f66402a4a2}; !- Holiday Schedule Name

OS:Schedule:Day,
  {b173070c-f9e5-4c6a-a2ae-ad6189d1281e}, !- Handle
  Schedule Day 4,                         !- Name
  {5fb5316c-189d-4440-85a7-7967a5ac19d3}, !- Schedule Type Limits Name
  ,                                       !- Interpolate to Timestep
  24,                                     !- Hour 1
  0,                                      !- Minute 1
  15.6;                                   !- Value Until Time 1

OS:Schedule:Day,
  {7b55823a-f649-42ad-a31a-07876cbfc085}, !- Handle
  OfficeMedium HTGSETP_SCH_YES_OPTIMUM_Default, !- Name
  {5fb5316c-189d-4440-85a7-7967a5ac19d3}, !- Schedule Type Limits Name
  ,                                       !- Interpolate to Timestep
  24,                                     !- Hour 1
  0,                                      !- Minute 1
  15.6;                                   !- Value Until Time 1

OS:Schedule:Day,
  {b31e2687-d149-47f2-b97a-07e489524a01}, !- Handle
  OfficeMedium HTGSETP_SCH_YES_OPTIMUM_Default_SmrDsn, !- Name
  {5fb5316c-189d-4440-85a7-7967a5ac19d3}, !- Schedule Type Limits Name
  ,                                       !- Interpolate to Timestep
  24,                                     !- Hour 1
  0,                                      !- Minute 1
  15.6;                                   !- Value Until Time 1

OS:Schedule:Day,
  {e7fed386-d698-4989-8762-ad1fff637018}, !- Handle
  OfficeMedium HTGSETP_SCH_YES_OPTIMUM_WntrDsn, !- Name
  {5fb5316c-189d-4440-85a7-7967a5ac19d3}, !- Schedule Type Limits Name
  ,                                       !- Interpolate to Timestep
  5,                                      !- Hour 1
  0,                                      !- Minute 1
  15.6,                                   !- Value Until Time 1
  6,                                      !- Hour 2
  0,                                      !- Minute 2
  17.6,                                   !- Value Until Time 2
  7,                                      !- Hour 3
  0,                                      !- Minute 3
  19.6,                                   !- Value Until Time 3
  22,                                     !- Hour 4
  0,                                      !- Minute 4
  21,                                     !- Value Until Time 4
  24,                                     !- Hour 5
  0,                                      !- Minute 5
  15.6;                                   !- Value Until Time 5

OS:Schedule:Day,
  {ba040d27-fe3a-44d7-a384-dbd25a68e405}, !- Handle
  OfficeMedium HTGSETP_SCH_YES_OPTIMUM_Wkdy, !- Name
  {5fb5316c-189d-4440-85a7-7967a5ac19d3}, !- Schedule Type Limits Name
  ,                                       !- Interpolate to Timestep
  5,                                      !- Hour 1
  0,                                      !- Minute 1
  15.6,                                   !- Value Until Time 1
  6,                                      !- Hour 2
  0,                                      !- Minute 2
  17.8,                                   !- Value Until Time 2
  7,                                      !- Hour 3
  0,                                      !- Minute 3
  20,                                     !- Value Until Time 3
  22,                                     !- Hour 4
  0,                                      !- Minute 4
  21,                                     !- Value Until Time 4
  24,                                     !- Hour 5
  0,                                      !- Minute 5
  15.6;                                   !- Value Until Time 5

OS:Schedule:Day,
  {24e0e375-9faf-44b2-9d76-a1770972f758}, !- Handle
  OfficeMedium HTGSETP_SCH_YES_OPTIMUM_Sat, !- Name
  {5fb5316c-189d-4440-85a7-7967a5ac19d3}, !- Schedule Type Limits Name
  ,                                       !- Interpolate to Timestep
  5,                                      !- Hour 1
  0,                                      !- Minute 1
  15.6,                                   !- Value Until Time 1
  6,                                      !- Hour 2
  0,                                      !- Minute 2
  17.8,                                   !- Value Until Time 2
  7,                                      !- Hour 3
  0,                                      !- Minute 3
  20,                                     !- Value Until Time 3
  17,                                     !- Hour 4
  0,                                      !- Minute 4
  21,                                     !- Value Until Time 4
  24,                                     !- Hour 5
  0,                                      !- Minute 5
  15.6;                                   !- Value Until Time 5

OS:Schedule:Day,
  {0d93b93e-22fd-419e-b3c0-37f66402a4a2}, !- Handle
  OfficeMedium HTGSETP_SCH_YES_OPTIMUM_Default 1, !- Name
  {5fb5316c-189d-4440-85a7-7967a5ac19d3}, !- Schedule Type Limits Name
  ,                                       !- Interpolate to Timestep
  24,                                     !- Hour 1
  0,                                      !- Minute 1
  15.6;                                   !- Value Until Time 1

OS:Schedule:Day,
  {b8082f00-7a24-40be-ac9f-5c8227982e3b}, !- Handle
  OfficeMedium HTGSETP_SCH_YES_OPTIMUM_Default_SmrDsn 1, !- Name
  {5fb5316c-189d-4440-85a7-7967a5ac19d3}, !- Schedule Type Limits Name
  ,                                       !- Interpolate to Timestep
  24,                                     !- Hour 1
  0,                                      !- Minute 1
  15.6;                                   !- Value Until Time 1

OS:Schedule:Day,
  {d8341162-1e55-4794-927e-f82c8a08917a}, !- Handle
  OfficeMedium HTGSETP_SCH_YES_OPTIMUM_WntrDsn 1, !- Name
  {5fb5316c-189d-4440-85a7-7967a5ac19d3}, !- Schedule Type Limits Name
  ,                                       !- Interpolate to Timestep
  5,                                      !- Hour 1
  0,                                      !- Minute 1
  15.6,                                   !- Value Until Time 1
  6,                                      !- Hour 2
  0,                                      !- Minute 2
  17.6,                                   !- Value Until Time 2
  7,                                      !- Hour 3
  0,                                      !- Minute 3
  19.6,                                   !- Value Until Time 3
  22,                                     !- Hour 4
  0,                                      !- Minute 4
  21,                                     !- Value Until Time 4
  24,                                     !- Hour 5
  0,                                      !- Minute 5
  15.6;                                   !- Value Until Time 5

OS:Schedule:Rule,
  {37d4efdc-9f9d-43d1-a8d8-dd24909161d5}, !- Handle
  Schedule Rule 3,                        !- Name
  {81d948fb-6b70-464a-aa1f-fce7fcf0b761}, !- Schedule Ruleset Name
  0,                                      !- Rule Order
  {fef6a307-bf42-4fbf-b34b-9aa33d98bfc6}, !- Day Schedule Name
  No,                                     !- Apply Sunday
  Yes,                                    !- Apply Monday
  Yes,                                    !- Apply Tuesday
  Yes,                                    !- Apply Wednesday
  Yes,                                    !- Apply Thursday
  Yes,                                    !- Apply Friday
  No,                                     !- Apply Saturday
  DateRange,                              !- Date Specification Type
  1,                                      !- Start Month
  1,                                      !- Start Day
  12,                                     !- End Month
  31;                                     !- End Day

OS:Schedule:Day,
  {fef6a307-bf42-4fbf-b34b-9aa33d98bfc6}, !- Handle
  Schedule Day 5,                         !- Name
  {5fb5316c-189d-4440-85a7-7967a5ac19d3}, !- Schedule Type Limits Name
  ,                                       !- Interpolate to Timestep
  5,                                      !- Hour 1
  0,                                      !- Minute 1
  15.6,                                   !- Value Until Time 1
  6,                                      !- Hour 2
  0,                                      !- Minute 2
  17.8,                                   !- Value Until Time 2
  7,                                      !- Hour 3
  0,                                      !- Minute 3
  20,                                     !- Value Until Time 3
  22,                                     !- Hour 4
  0,                                      !- Minute 4
  21,                                     !- Value Until Time 4
  24,                                     !- Hour 5
  0,                                      !- Minute 5
  15.6;                                   !- Value Until Time 5

OS:Schedule:Rule,
  {06c70f9f-4c7f-47b6-abdb-0395f02a2a60}, !- Handle
  Schedule Rule 4,                        !- Name
  {81d948fb-6b70-464a-aa1f-fce7fcf0b761}, !- Schedule Ruleset Name
  1,                                      !- Rule Order
  {79e6a7c5-45b0-472f-b36d-ec933309d71d}, !- Day Schedule Name
  No,                                     !- Apply Sunday
  No,                                     !- Apply Monday
  No,                                     !- Apply Tuesday
  No,                                     !- Apply Wednesday
  No,                                     !- Apply Thursday
  No,                                     !- Apply Friday
  Yes,                                    !- Apply Saturday
  DateRange,                              !- Date Specification Type
  1,                                      !- Start Month
  1,                                      !- Start Day
  12,                                     !- End Month
  31;                                     !- End Day

OS:Schedule:Day,
  {79e6a7c5-45b0-472f-b36d-ec933309d71d}, !- Handle
  Schedule Day 6,                         !- Name
  {5fb5316c-189d-4440-85a7-7967a5ac19d3}, !- Schedule Type Limits Name
  ,                                       !- Interpolate to Timestep
  5,                                      !- Hour 1
  0,                                      !- Minute 1
  15.6,                                   !- Value Until Time 1
  6,                                      !- Hour 2
  0,                                      !- Minute 2
  17.8,                                   !- Value Until Time 2
  7,                                      !- Hour 3
  0,                                      !- Minute 3
  20,                                     !- Value Until Time 3
  17,                                     !- Hour 4
  0,                                      !- Minute 4
  21,                                     !- Value Until Time 4
  24,                                     !- Hour 5
  0,                                      !- Minute 5
  15.6;                                   !- Value Until Time 5

OS:Schedule:Ruleset,
  {b91b00fa-df40-492d-9fb4-2b1ebdef3be5}, !- Handle
  Generic Office Equipment,               !- Name
  {2c94b924-3179-47c1-91e5-28bb148d8496}, !- Schedule Type Limits Name
  {a1059404-26fd-4ed9-bf7c-f73725be36c4}, !- Default Day Schedule Name
  {406f4343-30e4-4e43-82a0-22ae17ed1ff5}, !- Summer Design Day Schedule Name
  {6019b8a2-ac25-452d-a1f6-2fef2bad4646}, !- Winter Design Day Schedule Name
  {146cc6cf-5ef2-4719-b996-ac9a38c90ec4}; !- Holiday Schedule Name

OS:Schedule:Day,
  {a1059404-26fd-4ed9-bf7c-f73725be36c4}, !- Handle
  Schedule Day 7,                         !- Name
  {2c94b924-3179-47c1-91e5-28bb148d8496}, !- Schedule Type Limits Name
  ,                                       !- Interpolate to Timestep