
OS:Version,
  {1874ddf0-bfe2-49c9-971a-9dd96d832742}, !- Handle
  3.0.1;                                  !- Version Identifier

OS:Building,
  {c803c6fb-810d-455a-ae3b-8f739e5767e9}, !- Handle
  Building 1,                             !- Name
  ,                                       !- Building Sector Type
  -0,                                     !- North Axis {deg}
  ,                                       !- Nominal Floor to Floor Height {m}
  ,                                       !- Space Type Name
  {43aa1301-3d49-479c-b728-99ae990aee3a}, !- Default Construction Set Name
  ,                                       !- Default Schedule Set Name
  ,                                       !- Standards Number of Stories
  ,                                       !- Standards Number of Above Ground Stories
  ,                                       !- Standards Template
  MediumOffice;                           !- Standards Building Type

OS:Facility,
  {af1b7de4-231d-4b74-8cd8-2bb1fffa229c}; !- Handle

OS:Site,
  {ebfe6c02-ce30-439a-805e-5ceeca0fe76f}, !- Handle
  Site 1,                                 !- Name
  ,                                       !- Latitude {deg}
  ,                                       !- Longitude {deg}
  ,                                       !- Time Zone {hr}
  ,                                       !- Elevation {m}
  City;                                   !- Terrain

OS:SimulationControl,
  {c34334d9-e16e-4751-89b8-a808e1ab1344}, !- Handle
  Yes,                                    !- Do Zone Sizing Calculation
  Yes,                                    !- Do System Sizing Calculation
  Yes,                                    !- Do Plant Sizing Calculation
  No,                                     !- Run Simulation for Sizing Periods
  Yes,                                    !- Run Simulation for Weather File Run Periods
  ,                                       !- Loads Convergence Tolerance Value {W}
  ,                                       !- Temperature Convergence Tolerance Value {deltaC}
  FullExteriorWithReflections;            !- Solar Distribution

OS:Sizing:Parameters,
  {e793413b-b971-42b7-8212-24e1f39e1093}, !- Handle
  1.25,                                   !- Heating Sizing Factor
  1.15;                                   !- Cooling Sizing Factor

OS:Timestep,
  {910b4e1b-2a1f-4326-8bed-dc49fbf0e932}, !- Handle
  6;                                      !- Number of Timesteps per Hour

OS:ShadowCalculation,
  {c25ea831-695f-4187-a62b-2aa59caa48f9}, !- Handle
  PolygonClipping,                        !- Shading Calculation Method
  Periodic,                               !- Shading Calculation Update Frequency Method
  30,                                     !- Shading Calculation Update Frequency
  15000,                                  !- Maximum Figures in Shadow Overlap Calculations
  ,                                       !- Polygon Clipping Algorithm
  512,                                    !- Pixel Counting Resolution
  ,                                       !- Sky Diffuse Modeling Algorithm
  No,                                     !- Output External Shading Calculation Results
  No,                                     !- Disable Self-Shading Within Shading Zone Groups
  No;                                     !- Disable Self-Shading From Shading Zone Groups to Other Zones

OS:HeatBalanceAlgorithm,
  {5fb1b7bd-4343-48ec-b88b-152fba35f579}, !- Handle
  ConductionTransferFunction,             !- Algorithm
  200;                                    !- Surface Temperature Upper Limit {C}

OS:RunPeriod,
  {82fc7d7f-fc66-46a6-8215-2c13efdf8991}, !- Handle
  Run Period 1,                           !- Name
  1,                                      !- Begin Month
  1,                                      !- Begin Day of Month
  1,                                      !- End Month
  31,                                     !- End Day of Month
  ,                                       !- Use Weather File Holidays and Special Days
  ,                                       !- Use Weather File Daylight Saving Period
  ,                                       !- Apply Weekend Holiday Rule
  ,                                       !- Use Weather File Rain Indicators
  ,                                       !- Use Weather File Snow Indicators
  ;                                       !- Number of Times Runperiod to be Repeated

OS:LifeCycleCost:Parameters,
  {2508d127-969c-4a16-b963-5590c2aa20e3}, !- Handle
  ,                                       !- Analysis Type
  ,                                       !- Discounting Convention
  ,                                       !- Inflation Approach
  ,                                       !- Real Discount Rate
  ,                                       !- Nominal Discount Rate
  ,                                       !- Inflation
  ,                                       !- Base Date Month
  ,                                       !- Base Date Year
  ,                                       !- Service Date Month
  ,                                       !- Service Date Year
  ;                                       !- Length of Study Period in Years

OS:WeatherFile,
  {3f667247-2b26-43c9-a04f-1b0df4d5ab96}, !- Handle
  Boston Logan IntL Arpt,                 !- City
  MA,                                     !- State Province Region
  USA,                                    !- Country
  TMY3,                                   !- Data Source
  725090,                                 !- WMO Number
  42.37,                                  !- Latitude {deg}
  -71.02,                                 !- Longitude {deg}
  -5,                                     !- Time Zone {hr}
  6,                                      !- Elevation {m}
  C:/Users/Administrator/ladybug_tools/resources/weather/USA_MA_Boston-Logan.Intl.AP.725090_TMY3/USA_MA_Boston-Logan.Intl.AP.725090_TMY3.epw, !- Url
  B65824C3;                               !- Checksum

OS:ScheduleTypeLimits,
  {39fe3946-b467-46db-b7f7-345991710be3}, !- Handle
  Temperature,                            !- Name
  -273.15,                                !- Lower Limit Value
  ,                                       !- Upper Limit Value
  Continuous,                             !- Numeric Type
  Temperature;                            !- Unit Type

OS:ScheduleTypeLimits,
  {107eb9ca-c066-4193-bd36-1aa16d377864}, !- Handle
  Activity Level,                         !- Name
  0,                                      !- Lower Limit Value
  ,                                       !- Upper Limit Value
  Continuous,                             !- Numeric Type
  ActivityLevel;                          !- Unit Type

OS:ScheduleTypeLimits,
  {f37653c0-a5f7-4999-8ea8-21cb39007c72}, !- Handle
  Fractional,                             !- Name
  0,                                      !- Lower Limit Value
  1,                                      !- Upper Limit Value
  Continuous,                             !- Numeric Type
  Dimensionless;                          !- Unit Type

OS:Schedule:Ruleset,
  {dba3469a-a18f-45b3-85d0-a3d069d23c3b}, !- Handle
  Generic Office Infiltration,            !- Name
  {f37653c0-a5f7-4999-8ea8-21cb39007c72}, !- Schedule Type Limits Name
  {a30a77c6-9009-458f-981a-c03a0c6a27ab}, !- Default Day Schedule Name
  {4258c614-8354-4545-88f7-568b13e026eb}, !- Summer Design Day Schedule Name
  {ccc84eec-e6cb-4b4a-93c1-231896f9fd50}, !- Winter Design Day Schedule Name
  {ac6093f3-96ac-41a9-96af-458c6ba589d2}; !- Holiday Schedule Name

OS:Schedule:Day,
  {a30a77c6-9009-458f-981a-c03a0c6a27ab}, !- Handle
  Schedule Day 1,                         !- Name
  {f37653c0-a5f7-4999-8ea8-21cb39007c72}, !- Schedule Type Limits Name
  ,                                       !- Interpolate to Timestep
  24,                                     !- Hour 1
  0,                                      !- Minute 1
  1;                                      !- Value Until Time 1

OS:Schedule:Day,
  {1bff934f-4cc2-4175-9da5-658bc65a4115}, !- Handle
  OfficeMedium INFIL_SCH_PNNL_Default,    !- Name
  {f37653c0-a5f7-4999-8ea8-21cb39007c72}, !- Schedule Type Limits Name
  ,                                       !- Interpolate to Timestep
  24,                                     !- Hour 1
  0,                                      !- Minute 1
  1;                                      !- Value Until Time 1

OS:Schedule:Day,
  {7d07de02-d62d-4bb8-a3e9-c677c8b6bbba}, !- Handle
  OfficeMedium INFIL_SCH_PNNL_Wkdy_SmrDsn, !- Name
  {f37653c0-a5f7-4999-8ea8-21cb39007c72}, !- Schedule Type Limits Name
  ,                                       !- Interpolate to Timestep
  6,                                      !- Hour 1
  0,                                      !- Minute 1
  1,                                      !- Value Until Time 1
  22,                                     !- Hour 2
  0,                                      !- Minute 2
  0.25,                                   !- Value Until Time 2
  24,                                     !- Hour 3
  0,                                      !- Minute 3
  1;                                      !- Value Until Time 3

OS:Schedule:Day,
  {ae8cb465-d8e5-4402-9c89-6856bcdc9243}, !- Handle
  OfficeMedium INFIL_SCH_PNNL_Sat_WntrDsn, !- Name
  {f37653c0-a5f7-4999-8ea8-21cb39007c72}, !- Schedule Type Limits Name
  ,                                       !- Interpolate to Timestep
  6,                                      !- Hour 1
  0,                                      !- Minute 1
  1,                                      !- Value Until Time 1
  18,                                     !- Hour 2
  0,                                      !- Minute 2
  0.25,                                   !- Value Until Time 2
  24,                                     !- Hour 3
  0,                                      !- Minute 3
  1;                                      !- Value Until Time 3

OS:Schedule:Day,
  {cf6c14cf-df94-48a8-b6ba-6ba7d2db7a16}, !- Handle
  OfficeMedium INFIL_SCH_PNNL_Wkdy,       !- Name
  {f37653c0-a5f7-4999-8ea8-21cb39007c72}, !- Schedule Type Limits Name
  ,                                       !- Interpolate to Timestep
  6,                                      !- Hour 1
  0,                                      !- Minute 1
  1,                                      !- Value Until Time 1
  22,                                     !- Hour 2
  0,                                      !- Minute 2
  0.25,                                   !- Value Until Time 2
  24,                                     !- Hour 3
  0,                                      !- Minute 3
  1;                                      !- Value Until Time 3

OS:Schedule:Day,
  {fe76b150-3c92-4e62-9e05-bedbe19a8d49}, !- Handle
  OfficeMedium INFIL_SCH_PNNL_Sat,        !- Name
  {f37653c0-a5f7-4999-8ea8-21cb39007c72}, !- Schedule Type Limits Name
  ,                                       !- Interpolate to Timestep
  6,                                      !- Hour 1
  0,                                      !- Minute 1
  1,                                      !- Value Until Time 1
  18,                                     !- Hour 2
  0,                                      !- Minute 2
  0.25,                                   !- Value Until Time 2
  24,                                     !- Hour 3
  0,                                      !- Minute 3
  1;                                      !- Value Until Time 3

OS:Schedule:Day,
  {ac6093f3-96ac-41a9-96af-458c6ba589d2}, !- Handle
  OfficeMedium INFIL_SCH_PNNL_Default 1,  !- Name
  {f37653c0-a5f7-4999-8ea8-21cb39007c72}, !- Schedule Type Limits Name
  ,                                       !- Interpolate to Timestep
  24,                                     !- Hour 1
  0,                                      !- Minute 1
  1;                                      !- Value Until Time 1

OS:Schedule:Day,
  {4258c614-8354-4545-88f7-568b13e026eb}, !- Handle
  OfficeMedium INFIL_SCH_PNNL_Wkdy_SmrDsn 1, !- Name
  {f37653c0-a5f7-4999-8ea8-21cb39007c72}, !- Schedule Type Limits Name
  ,                                       !- Interpolate to Timestep
  6,                                      !- Hour 1
  0,                                      !- Minute 1
  1,                                      !- Value Until Time 1
  22,                                     !- Hour 2
  0,                                      !- Minute 2
  0.25,                                   !- Value Until Time 2
  24,                                     !- Hour 3
  0,                                      !- Minute 3
  1;                                      !- Value Until Time 3

OS:Schedule:Day,
  {ccc84eec-e6cb-4b4a-93c1-231896f9fd50}, !- Handle
  OfficeMedium INFIL_SCH_PNNL_Sat_WntrDsn 1, !- Name
  {f37653c0-a5f7-4999-8ea8-21cb39007c72}, !- Schedule Type Limits Name
  ,                                       !- Interpolate to Timestep
  6,                                      !- Hour 1
  0,                                      !- Minute 1
  1,                                      !- Value Until Time 1
  18,                                     !- Hour 2
  0,                                      !- Minute 2
  0.25,                                   !- Value Until Time 2
  24,                                     !- Hour 3
  0,                                      !- Minute 3
  1;                                      !- Value Until Time 3

OS:Schedule:Rule,
  {4db607b4-de47-41c1-b82f-21805bcff0b2}, !- Handle
  Schedule Rule 1,                        !- Name
  {dba3469a-a18f-45b3-85d0-a3d069d23c3b}, !- Schedule Ruleset Name
  0,                                      !- Rule Order
  {7704c76d-feda-4dc4-a4c4-9bf5a97a08b3}, !- Day Schedule Name
  No,                                     !- Apply Sunday
  Yes,                                    !- Apply Monday
  Yes,                                    !- Apply Tuesday
  Yes,                                    !- Apply Wednesday
  Yes,                                    !- Apply Thursday
  Yes,                                    !- Apply Friday
  No,                                     !- Apply Saturday
  DateRange,                              !- Date Specification Type
  1,                                      !- Start Month
  1,                                      !- Start Day
  12,                                     !- End Month
  31;                                     !- End Day

OS:Schedule:Day,
  {7704c76d-feda-4dc4-a4c4-9bf5a97a08b3}, !- Handle
  Schedule Day 2,                         !- Name
  {f37653c0-a5f7-4999-8ea8-21cb39007c72}, !- Schedule Type Limits Name
  ,                                       !- Interpolate to Timestep
  6,                                      !- Hour 1
  0,                                      !- Minute 1
  1,                                      !- Value Until Time 1
  22,                                     !- Hour 2
  0,                                      !- Minute 2
  0.25,                                   !- Value Until Time 2
  24,                                     !- Hour 3
  0,                                      !- Minute 3
  1;                                      !- Value Until Time 3

OS:YearDescription,
  {d777c08c-9dd4-4775-a55c-7d3f3e81e123}, !- Handle
  ,                                       !- Calendar Year
  Sunday;                                 !- Day of Week for Start Day

OS:Schedule:Rule,
  {a405c263-2e5f-4328-abdc-fe0935c12cd6}, !- Handle
  Schedule Rule 2,                        !- Name
  {dba3469a-a18f-45b3-85d0-a3d069d23c3b}, !- Schedule Ruleset Name
  1,                                      !- Rule Order
  {8df0e300-670e-4a51-bbf2-4ee3ed108ce8}, !- Day Schedule Name
  No,                                     !- Apply Sunday
  No,                                     !- Apply Monday
  No,                                     !- Apply Tuesday
  No,                                     !- Apply Wednesday
  No,                                     !- Apply Thursday
  No,                                     !- Apply Friday
  Yes,                                    !- Apply Saturday
  DateRange,                              !- Date Specification Type
  1,                                      !- Start Month
  1,                                      !- Start Day
  12,                                     !- End Month
  31;                                     !- End Day

OS:Schedule:Day,
  {8df0e300-670e-4a51-bbf2-4ee3ed108ce8}, !- Handle
  Schedule Day 3,                         !- Name
  {f37653c0-a5f7-4999-8ea8-21cb39007c72}, !- Schedule Type Limits Name
  ,                                       !- Interpolate to Timestep
  6,                                      !- Hour 1
  0,                                      !- Minute 1
  1,                                      !- Value Until Time 1
  18,                                     !- Hour 2
  0,                                      !- Minute 2
  0.25,                                   !- Value Until Time 2
  24,                                     !- Hour 3
  0,                                      !- Minute 3
  1;                                      !- Value Until Time 3

OS:Schedule:Ruleset,
  {1bb84706-21f1-46c8-9102-2f9cc5709a47}, !- Handle
  Generic Office Heating,                 !- Name
  {39fe3946-b467-46db-b7f7-345991710be3}, !- Schedule Type Limits Name
  {e20288fb-9f5f-433c-8004-5f65c9ff0eda}, !- Default Day Schedule Name
  {79c49f70-fa6e-46e4-87f3-76f7cbf575a3}, !- Summer Design Day Schedule Name
  {5b5c4b19-3d7c-4510-81ac-3cd61ad23172}, !- Winter Design Day Schedule Name
  {ec0a4f58-4c09-42b6-b23a-f362d7b00445}; !- Holiday Schedule Name

OS:Schedule:Day,
  {e20288fb-9f5f-433c-8004-5f65c9ff0eda}, !- Handle
  Schedule Day 4,                         !- Name
  {39fe3946-b467-46db-b7f7-345991710be3}, !- Schedule Type Limits Name
  ,                                       !- Interpolate to Timestep
  24,                                     !- Hour 1
  0,                                      !- Minute 1
  15.6;                                   !- Value Until Time 1

OS:Schedule:Day,
  {36e68369-279f-4843-9cba-59effecdfba8}, !- Handle
  OfficeMedium HTGSETP_SCH_YES_OPTIMUM_Default, !- Name
  {39fe3946-b467-46db-b7f7-345991710be3}, !- Schedule Type Limits Name
  ,                                       !- Interpolate to Timestep
  24,                                     !- Hour 1
  0,                                      !- Minute 1
  15.6;                                   !- Value Until Time 1

OS:Schedule:Day,
  {9fb00f64-70aa-498f-b669-8c4a9a4cf4a8}, !- Handle
  OfficeMedium HTGSETP_SCH_YES_OPTIMUM_Default_SmrDsn, !- Name
  {39fe3946-b467-46db-b7f7-345991710be3}, !- Schedule Type Limits Name
  ,                                       !- Interpolate to Timestep
  24,                                     !- Hour 1
  0,                                      !- Minute 1
  15.6;                                   !- Value Until Time 1

OS:Schedule:Day,
  {8842c5b9-793c-4a4e-9862-d85749ac6f09}, !- Handle
  OfficeMedium HTGSETP_SCH_YES_OPTIMUM_WntrDsn, !- Name
  {39fe3946-b467-46db-b7f7-345991710be3}, !- Schedule Type Limits Name
  ,                                       !- Interpolate to Timestep
  5,                                      !- Hour 1
  0,                                      !- Minute 1
  15.6,                                   !- Value Until Time 1
  6,                                      !- Hour 2
  0,                                      !- Minute 2
  17.6,                                   !- Value Until Time 2
  7,                                      !- Hour 3
  0,                                      !- Minute 3
  19.6,                                   !- Value Until Time 3
  22,                                     !- Hour 4
  0,                                      !- Minute 4
  21,                                     !- Value Until Time 4
  24,                                     !- Hour 5
  0,                                      !- Minute 5
  15.6;                                   !- Value Until Time 5

OS:Schedule:Day,
  {d4feb090-a319-420c-a7a5-546029378ffc}, !- Handle
  OfficeMedium HTGSETP_SCH_YES_OPTIMUM_Wkdy, !- Name
  {39fe3946-b467-46db-b7f7-345991710be3}, !- Schedule Type Limits Name
  ,                                       !- Interpolate to Timestep
  5,                                      !- Hour 1
  0,                                      !- Minute 1
  15.6,                                   !- Value Until Time 1
  6,                                      !- Hour 2
  0,                                      !- Minute 2
  17.8,                                   !- Value Until Time 2
  7,                                      !- Hour 3
  0,                                      !- Minute 3
  20,                                     !- Value Until Time 3
  22,                                     !- Hour 4
  0,                                      !- Minute 4
  21,                                     !- Value Until Time 4
  24,                                     !- Hour 5
  0,                                      !- Minute 5
  15.6;                                   !- Value Until Time 5

OS:Schedule:Day,
  {3e795206-f1b3-41fb-a216-59ff6a202024}, !- Handle
  OfficeMedium HTGSETP_SCH_YES_OPTIMUM_Sat, !- Name
  {39fe3946-b467-46db-b7f7-345991710be3}, !- Schedule Type Limits Name
  ,                                       !- Interpolate to Timestep
  5,                                      !- Hour 1
  0,                                      !- Minute 1
  15.6,                                   !- Value Until Time 1
  6,                                      !- Hour 2
  0,                                      !- Minute 2
  17.8,                                   !- Value Until Time 2
  7,                                      !- Hour 3
  0,                                      !- Minute 3
  20,                                     !- Value Until Time 3
  17,                                     !- Hour 4
  0,                                      !- Minute 4
  21,                                     !- Value Until Time 4
  24,                                     !- Hour 5
  0,                                      !- Minute 5
  15.6;                                   !- Value Until Time 5

OS:Schedule:Day,
  {ec0a4f58-4c09-42b6-b23a-f362d7b00445}, !- Handle
  OfficeMedium HTGSETP_SCH_YES_OPTIMUM_Default 1, !- Name
  {39fe3946-b467-46db-b7f7-345991710be3}, !- Schedule Type Limits Name
  ,                                       !- Interpolate to Timestep
  24,                                     !- Hour 1
  0,                                      !- Minute 1
  15.6;                                   !- Value Until Time 1

OS:Schedule:Day,
  {79c49f70-fa6e-46e4-87f3-76f7cbf575a3}, !- Handle
  OfficeMedium HTGSETP_SCH_YES_OPTIMUM_Default_SmrDsn 1, !- Name
  {39fe3946-b467-46db-b7f7-345991710be3}, !- Schedule Type Limits Name
  ,                                       !- Interpolate to Timestep
  24,                                     !- Hour 1
  0,                                      !- Minute 1
  15.6;                                   !- Value Until Time 1

OS:Schedule:Day,
  {5b5c4b19-3d7c-4510-81ac-3cd61ad23172}, !- Handle
  OfficeMedium HTGSETP_SCH_YES_OPTIMUM_WntrDsn 1, !- Name
  {39fe3946-b467-46db-b7f7-345991710be3}, !- Schedule Type Limits Name
  ,                                       !- Interpolate to Timestep
  5,                                      !- Hour 1
  0,                                      !- Minute 1
  15.6,                                   !- Value Until Time 1
  6,                                      !- Hour 2
  0,                                      !- Minute 2
  17.6,                                   !- Value Until Time 2
  7,                                      !- Hour 3
  0,                                      !- Minute 3
  19.6,                                   !- Value Until Time 3
  22,                                     !- Hour 4
  0,                                      !- Minute 4
  21,                                     !- Value Until Time 4
  24,                                     !- Hour 5
  0,                                      !- Minute 5
  15.6;                                   !- Value Until Time 5

OS:Schedule:Rule,
  {b37b220e-1a18-408f-b4ca-f8430604d5d7}, !- Handle
  Schedule Rule 3,                        !- Name
  {1bb84706-21f1-46c8-9102-2f9cc5709a47}, !- Schedule Ruleset Name
  0,                                      !- Rule Order
  {ea4a069b-e50b-4766-bd0c-7ead24affd4f}, !- Day Schedule Name
  No,                                     !- Apply Sunday
  Yes,                                    !- Apply Monday
  Yes,                                    !- Apply Tuesday
  Yes,                                    !- Apply Wednesday
  Yes,                                    !- Apply Thursday
  Yes,                                    !- Apply Friday
  No,                                     !- Apply Saturday
  DateRange,                              !- Date Specification Type
  1,                                      !- Start Month
  1,                                      !- Start Day
  12,                                     !- End Month
  31;                                     !- End Day

OS:Schedule:Day,
  {ea4a069b-e50b-4766-bd0c-7ead24affd4f}, !- Handle
  Schedule Day 5,                         !- Name
  {39fe3946-b467-46db-b7f7-345991710be3}, !- Schedule Type Limits Name
  ,                                       !- Interpolate to Timestep
  5,                                      !- Hour 1
  0,                                      !- Minute 1
  15.6,                                   !- Value Until Time 1
  6,                                      !- Hour 2
  0,                                      !- Minute 2
  17.8,                                   !- Value Until Time 2
  7,                                      !- Hour 3
  0,                                      !- Minute 3
  20,                                     !- Value Until Time 3
  22,                                     !- Hour 4
  0,                                      !- Minute 4
  21,                                     !- Value Until Time 4
  24,                                     !- Hour 5
  0,                                      !- Minute 5
  15.6;                                   !- Value Until Time 5

OS:Schedule:Rule,
  {f5b66415-5bcb-4da7-bf0a-65a9bc153280}, !- Handle
  Schedule Rule 4,                        !- Name
  {1bb84706-21f1-46c8-9102-2f9cc5709a47}, !- Schedule Ruleset Name
  1,                                      !- Rule Order
  {903114fc-21fa-424a-8c73-9fb911b6baff}, !- Day Schedule Name
  No,                                     !- Apply Sunday
  No,                                     !- Apply Monday
  No,                                     !- Apply Tuesday
  No,                                     !- Apply Wednesday
  No,                                     !- Apply Thursday
  No,                                     !- Apply Friday
  Yes,                                    !- Apply Saturday
  DateRange,                              !- Date Specification Type
  1,                                      !- Start Month
  1,                                      !- Start Day
  12,                                     !- End Month
  31;                                     !- End Day

OS:Schedule:Day,
  {903114fc-21fa-424a-8c73-9fb911b6baff}, !- Handle
  Schedule Day 6,                         !- Name
  {39fe3946-b467-46db-b7f7-345991710be3}, !- Schedule Type Limits Name
  ,                                       !- Interpolate to Timestep
  5,                                      !- Hour 1
  0,                                      !- Minute 1
  15.6,                                   !- Value Until Time 1
  6,                                      !- Hour 2
  0,                                      !- Minute 2
  17.8,                                   !- Value Until Time 2
  7,                                      !- Hour 3
  0,                                      !- Minute 3
  20,                                     !- Value Until Time 3
  17,                                     !- Hour 4
  0,                                      !- Minute 4
  21,                                     !- Value Until Time 4
  24,                                     !- Hour 5
  0,                                      !- Minute 5
  15.6;                                   !- Value Until Time 5

OS:Schedule:Ruleset,
  {b7375f61-cb2c-47cd-a17a-6877e620d56e}, !- Handle
  Generic Office Equipment,               !- Name
  {f37653c0-a5f7-4999-8ea8-21cb39007c72}, !- Schedule Type Limits Name
  {c86d754a-9db7-451a-8283-f508054446ac}, !- Default Day Schedule Name
  {86a1be7c-6ca7-4223-a141-11fd914891d2}, !- Summer Design Day Schedule Name
  {a6ebe5c2-6795-4008-95c1-f2af74c2a05f}, !- Winter Design Day Schedule Name
  {71423248-beea-4d8e-9067-582fc7e6573e}; !- Holiday Schedule Name

OS:Schedule:Day,
  {c86d754a-9db7-451a-8283-f508054446ac}, !- Handle
  Schedule Day 7,                         !- Name
  {f37653c0-a5f7-4999-8ea8-21cb39007c72}, !- Schedule Type Limits Name
  ,                                       !- Interpolate to Timestep