
OS:Version,
  {84e16877-9f5d-4230-ab42-be419e040fb2}, !- Handle
  3.0.1;                                  !- Version Identifier

OS:Building,
  {3c3bde67-6f01-4eca-8c8c-a85a3ce18ef9}, !- Handle
  Building 1,                             !- Name
  ,                                       !- Building Sector Type
  -0,                                     !- North Axis {deg}
  ,                                       !- Nominal Floor to Floor Height {m}
  ,                                       !- Space Type Name
  {a5dc3d56-fba4-4870-9c8f-d772038af37f}, !- Default Construction Set Name
  ,                                       !- Default Schedule Set Name
  ,                                       !- Standards Number of Stories
  ,                                       !- Standards Number of Above Ground Stories
  ,                                       !- Standards Template
  MediumOffice;                           !- Standards Building Type

OS:Facility,
  {87dd81ad-da68-4ada-94a0-4a7b8301803c}; !- Handle

OS:Site,
  {37a56ca4-8a9c-428f-80d4-1e3010067412}, !- Handle
  Site 1,                                 !- Name
  ,                                       !- Latitude {deg}
  ,                                       !- Longitude {deg}
  ,                                       !- Time Zone {hr}
  ,                                       !- Elevation {m}
  City;                                   !- Terrain

OS:SimulationControl,
  {d9b9ff03-e847-42e4-95cc-557a03145579}, !- Handle
  Yes,                                    !- Do Zone Sizing Calculation
  Yes,                                    !- Do System Sizing Calculation
  Yes,                                    !- Do Plant Sizing Calculation
  No,                                     !- Run Simulation for Sizing Periods
  Yes,                                    !- Run Simulation for Weather File Run Periods
  ,                                       !- Loads Convergence Tolerance Value {W}
  ,                                       !- Temperature Convergence Tolerance Value {deltaC}
  FullExteriorWithReflections;            !- Solar Distribution

OS:Sizing:Parameters,
  {1ab46934-f16d-4521-b90e-3087d9db3f0a}, !- Handle
  1.25,                                   !- Heating Sizing Factor
  1.15;                                   !- Cooling Sizing Factor

OS:Timestep,
  {db48588a-3f66-49dc-8728-a7eda4d3dc1f}, !- Handle
  6;                                      !- Number of Timesteps per Hour

OS:ShadowCalculation,
  {e4a62c3f-49a7-4a6d-b2b6-1163bd535f05}, !- Handle
  PolygonClipping,                        !- Shading Calculation Method
  Periodic,                               !- Shading Calculation Update Frequency Method
  30,                                     !- Shading Calculation Update Frequency
  15000,                                  !- Maximum Figures in Shadow Overlap Calculations
  ,                                       !- Polygon Clipping Algorithm
  512,                                    !- Pixel Counting Resolution
  ,                                       !- Sky Diffuse Modeling Algorithm
  No,                                     !- Output External Shading Calculation Results
  No,                                     !- Disable Self-Shading Within Shading Zone Groups
  No;                                     !- Disable Self-Shading From Shading Zone Groups to Other Zones

OS:HeatBalanceAlgorithm,
  {7f9d938a-f013-489c-9a60-640f0c259df3}, !- Handle
  ConductionTransferFunction,             !- Algorithm
  200;                                    !- Surface Temperature Upper Limit {C}

OS:RunPeriod,
  {4915506d-46ae-4405-9f9a-f4d48bcf4b5b}, !- Handle
  Run Period 1,                           !- Name
  1,                                      !- Begin Month
  1,                                      !- Begin Day of Month
  1,                                      !- End Month
  31,                                     !- End Day of Month
  ,                                       !- Use Weather File Holidays and Special Days
  ,                                       !- Use Weather File Daylight Saving Period
  ,                                       !- Apply Weekend Holiday Rule
  ,                                       !- Use Weather File Rain Indicators
  ,                                       !- Use Weather File Snow Indicators
  ;                                       !- Number of Times Runperiod to be Repeated

OS:LifeCycleCost:Parameters,
  {5ca9761b-b1e4-42a1-a402-28779647ef69}, !- Handle
  ,                                       !- Analysis Type
  ,                                       !- Discounting Convention
  ,                                       !- Inflation Approach
  ,                                       !- Real Discount Rate
  ,                                       !- Nominal Discount Rate
  ,                                       !- Inflation
  ,                                       !- Base Date Month
  ,                                       !- Base Date Year
  ,                                       !- Service Date Month
  ,                                       !- Service Date Year
  ;                                       !- Length of Study Period in Years

OS:WeatherFile,
  {42eeceb5-20b1-48d6-a8d4-f3c063dce77f}, !- Handle
  Boston Logan IntL Arpt,                 !- City
  MA,                                     !- State Province Region
  USA,                                    !- Country
  TMY3,                                   !- Data Source
  725090,                                 !- WMO Number
  42.37,                                  !- Latitude {deg}
  -71.02,                                 !- Longitude {deg}
  -5,                                     !- Time Zone {hr}
  6,                                      !- Elevation {m}
  C:/Users/Administrator/ladybug_tools/resources/weather/USA_MA_Boston-Logan.Intl.AP.725090_TMY3/USA_MA_Boston-Logan.Intl.AP.725090_TMY3.epw, !- Url
  B65824C3;                               !- Checksum

OS:ScheduleTypeLimits,
  {9573b439-12c2-43f6-9e6a-98981f5ad205}, !- Handle
  Temperature,                            !- Name
  -273.15,                                !- Lower Limit Value
  ,                                       !- Upper Limit Value
  Continuous,                             !- Numeric Type
  Temperature;                            !- Unit Type

OS:ScheduleTypeLimits,
  {a4300705-f605-4249-8bd2-a98f99184ed8}, !- Handle
  Activity Level,                         !- Name
  0,                                      !- Lower Limit Value
  ,                                       !- Upper Limit Value
  Continuous,                             !- Numeric Type
  ActivityLevel;                          !- Unit Type

OS:ScheduleTypeLimits,
  {c7e9a413-094d-420d-8bab-53fb60bd013c}, !- Handle
  Fractional,                             !- Name
  0,                                      !- Lower Limit Value
  1,                                      !- Upper Limit Value
  Continuous,                             !- Numeric Type
  Dimensionless;                          !- Unit Type

OS:Schedule:Ruleset,
  {485d4882-c5d3-4c63-a3ae-9db4966192b1}, !- Handle
  Generic Office Infiltration,            !- Name
  {c7e9a413-094d-420d-8bab-53fb60bd013c}, !- Schedule Type Limits Name
  {f2f51fec-99a2-408d-b2d2-dbb63b110ab0}, !- Default Day Schedule Name
  {d05e4cd2-0d9b-462e-b09e-80a4b99271b4}, !- Summer Design Day Schedule Name
  {3d45e187-9920-4987-a124-937aa33e2a06}, !- Winter Design Day Schedule Name
  {e56820f1-94a0-4198-903b-426b992ee484}; !- Holiday Schedule Name

OS:Schedule:Day,
  {f2f51fec-99a2-408d-b2d2-dbb63b110ab0}, !- Handle
  Schedule Day 1,                         !- Name
  {c7e9a413-094d-420d-8bab-53fb60bd013c}, !- Schedule Type Limits Name
  ,                                       !- Interpolate to Timestep
  24,                                     !- Hour 1
  0,                                      !- Minute 1
  1;                                      !- Value Until Time 1

OS:Schedule:Day,
  {8e24dc1c-98a9-434c-badd-d526ee921c31}, !- Handle
  OfficeMedium INFIL_SCH_PNNL_Default,    !- Name
  {c7e9a413-094d-420d-8bab-53fb60bd013c}, !- Schedule Type Limits Name
  ,                                       !- Interpolate to Timestep
  24,                                     !- Hour 1
  0,                                      !- Minute 1
  1;                                      !- Value Until Time 1

OS:Schedule:Day,
  {1b80fc2d-f9d4-492f-985c-74056556506f}, !- Handle
  OfficeMedium INFIL_SCH_PNNL_Wkdy_SmrDsn, !- Name
  {c7e9a413-094d-420d-8bab-53fb60bd013c}, !- Schedule Type Limits Name
  ,                                       !- Interpolate to Timestep
  6,                                      !- Hour 1
  0,                                      !- Minute 1
  1,                                      !- Value Until Time 1
  22,                                     !- Hour 2
  0,                                      !- Minute 2
  0.25,                                   !- Value Until Time 2
  24,                                     !- Hour 3
  0,                                      !- Minute 3
  1;                                      !- Value Until Time 3

OS:Schedule:Day,
  {ca61d9e6-88ee-4f3a-8b52-74c4004d71a5}, !- Handle
  OfficeMedium INFIL_SCH_PNNL_Sat_WntrDsn, !- Name
  {c7e9a413-094d-420d-8bab-53fb60bd013c}, !- Schedule Type Limits Name
  ,                                       !- Interpolate to Timestep
  6,                                      !- Hour 1
  0,                                      !- Minute 1
  1,                                      !- Value Until Time 1
  18,                                     !- Hour 2
  0,                                      !- Minute 2
  0.25,                                   !- Value Until Time 2
  24,                                     !- Hour 3
  0,                                      !- Minute 3
  1;                                      !- Value Until Time 3

OS:Schedule:Day,
  {4661832a-58ac-4c13-9391-999b7765ede1}, !- Handle
  OfficeMedium INFIL_SCH_PNNL_Wkdy,       !- Name
  {c7e9a413-094d-420d-8bab-53fb60bd013c}, !- Schedule Type Limits Name
  ,                                       !- Interpolate to Timestep
  6,                                      !- Hour 1
  0,                                      !- Minute 1
  1,                                      !- Value Until Time 1
  22,                                     !- Hour 2
  0,                                      !- Minute 2
  0.25,                                   !- Value Until Time 2
  24,                                     !- Hour 3
  0,                                      !- Minute 3
  1;                                      !- Value Until Time 3

OS:Schedule:Day,
  {75f18d59-6fd3-4253-b5e0-89b94f7e15c8}, !- Handle
  OfficeMedium INFIL_SCH_PNNL_Sat,        !- Name
  {c7e9a413-094d-420d-8bab-53fb60bd013c}, !- Schedule Type Limits Name
  ,                                       !- Interpolate to Timestep
  6,                                      !- Hour 1
  0,                                      !- Minute 1
  1,                                      !- Value Until Time 1
  18,                                     !- Hour 2
  0,                                      !- Minute 2
  0.25,                                   !- Value Until Time 2
  24,                                     !- Hour 3
  0,                                      !- Minute 3
  1;                                      !- Value Until Time 3

OS:Schedule:Day,
  {e56820f1-94a0-4198-903b-426b992ee484}, !- Handle
  OfficeMedium INFIL_SCH_PNNL_Default 1,  !- Name
  {c7e9a413-094d-420d-8bab-53fb60bd013c}, !- Schedule Type Limits Name
  ,                                       !- Interpolate to Timestep
  24,                                     !- Hour 1
  0,                                      !- Minute 1
  1;                                      !- Value Until Time 1

OS:Schedule:Day,
  {d05e4cd2-0d9b-462e-b09e-80a4b99271b4}, !- Handle
  OfficeMedium INFIL_SCH_PNNL_Wkdy_SmrDsn 1, !- Name
  {c7e9a413-094d-420d-8bab-53fb60bd013c}, !- Schedule Type Limits Name
  ,                                       !- Interpolate to Timestep
  6,                                      !- Hour 1
  0,                                      !- Minute 1
  1,                                      !- Value Until Time 1
  22,                                     !- Hour 2
  0,                                      !- Minute 2
  0.25,                                   !- Value Until Time 2
  24,                                     !- Hour 3
  0,                                      !- Minute 3
  1;                                      !- Value Until Time 3

OS:Schedule:Day,
  {3d45e187-9920-4987-a124-937aa33e2a06}, !- Handle
  OfficeMedium INFIL_SCH_PNNL_Sat_WntrDsn 1, !- Name
  {c7e9a413-094d-420d-8bab-53fb60bd013c}, !- Schedule Type Limits Name
  ,                                       !- Interpolate to Timestep
  6,                                      !- Hour 1
  0,                                      !- Minute 1
  1,                                      !- Value Until Time 1
  18,                                     !- Hour 2
  0,                                      !- Minute 2
  0.25,                                   !- Value Until Time 2
  24,                                     !- Hour 3
  0,                                      !- Minute 3
  1;                                      !- Value Until Time 3

OS:Schedule:Rule,
  {cd60a892-6ea8-4a2b-aaab-620104516b0b}, !- Handle
  Schedule Rule 1,                        !- Name
  {485d4882-c5d3-4c63-a3ae-9db4966192b1}, !- Schedule Ruleset Name
  0,                                      !- Rule Order
  {449e97d1-2f89-4952-8af6-870f5dc5835a}, !- Day Schedule Name
  No,                                     !- Apply Sunday
  Yes,                                    !- Apply Monday
  Yes,                                    !- Apply Tuesday
  Yes,                                    !- Apply Wednesday
  Yes,                                    !- Apply Thursday
  Yes,                                    !- Apply Friday
  No,                                     !- Apply Saturday
  DateRange,                              !- Date Specification Type
  1,                                      !- Start Month
  1,                                      !- Start Day
  12,                                     !- End Month
  31;                                     !- End Day

OS:Schedule:Day,
  {449e97d1-2f89-4952-8af6-870f5dc5835a}, !- Handle
  Schedule Day 2,                         !- Name
  {c7e9a413-094d-420d-8bab-53fb60bd013c}, !- Schedule Type Limits Name
  ,                                       !- Interpolate to Timestep
  6,                                      !- Hour 1
  0,                                      !- Minute 1
  1,                                      !- Value Until Time 1
  22,                                     !- Hour 2
  0,                                      !- Minute 2
  0.25,                                   !- Value Until Time 2
  24,                                     !- Hour 3
  0,                                      !- Minute 3
  1;                                      !- Value Until Time 3

OS:YearDescription,
  {a22b5c6e-27b1-45fb-a9b4-82d0cf0b4a46}, !- Handle
  ,                                       !- Calendar Year
  Sunday;                                 !- Day of Week for Start Day

OS:Schedule:Rule,
  {17a9b697-cdcf-4a33-910e-eef7f3a0593f}, !- Handle
  Schedule Rule 2,                        !- Name
  {485d4882-c5d3-4c63-a3ae-9db4966192b1}, !- Schedule Ruleset Name
  1,                                      !- Rule Order
  {f2043ebc-f75a-4e5b-97a9-2bc14c77742c}, !- Day Schedule Name
  No,                                     !- Apply Sunday
  No,                                     !- Apply Monday
  No,                                     !- Apply Tuesday
  No,                                     !- Apply Wednesday
  No,                                     !- Apply Thursday
  No,                                     !- Apply Friday
  Yes,                                    !- Apply Saturday
  DateRange,                              !- Date Specification Type
  1,                                      !- Start Month
  1,                                      !- Start Day
  12,                                     !- End Month
  31;                                     !- End Day

OS:Schedule:Day,
  {f2043ebc-f75a-4e5b-97a9-2bc14c77742c}, !- Handle
  Schedule Day 3,                         !- Name
  {c7e9a413-094d-420d-8bab-53fb60bd013c}, !- Schedule Type Limits Name
  ,                                       !- Interpolate to Timestep
  6,                                      !- Hour 1
  0,                                      !- Minute 1
  1,                                      !- Value Until Time 1
  18,                                     !- Hour 2
  0,                                      !- Minute 2
  0.25,                                   !- Value Until Time 2
  24,                                     !- Hour 3
  0,                                      !- Minute 3
  1;                                      !- Value Until Time 3

OS:Schedule:Ruleset,
  {7164b237-d286-496b-a94f-8339ad9ea6bb}, !- Handle
  Generic Office Heating,                 !- Name
  {9573b439-12c2-43f6-9e6a-98981f5ad205}, !- Schedule Type Limits Name
  {dc346c76-16fa-41a2-9ae5-f1d929d085ed}, !- Default Day Schedule Name
  {4d0cd569-e08e-4d16-960c-08e237e13d50}, !- Summer Design Day Schedule Name
  {68f22058-8b2e-4808-82b4-d271596a203d}, !- Winter Design Day Schedule Name
  {ca0fda4c-8a72-4651-a00a-800c58518862}; !- Holiday Schedule Name

OS:Schedule:Day,
  {dc346c76-16fa-41a2-9ae5-f1d929d085ed}, !- Handle
  Schedule Day 4,                         !- Name
  {9573b439-12c2-43f6-9e6a-98981f5ad205}, !- Schedule Type Limits Name
  ,                                       !- Interpolate to Timestep
  24,                                     !- Hour 1
  0,                                      !- Minute 1
  15.6;                                   !- Value Until Time 1

OS:Schedule:Day,
  {b03c2edb-3798-4a0a-aa03-7bbd6230ddd1}, !- Handle
  OfficeMedium HTGSETP_SCH_YES_OPTIMUM_Default, !- Name
  {9573b439-12c2-43f6-9e6a-98981f5ad205}, !- Schedule Type Limits Name
  ,                                       !- Interpolate to Timestep
  24,                                     !- Hour 1
  0,                                      !- Minute 1
  15.6;                                   !- Value Until Time 1

OS:Schedule:Day,
  {e7070d5e-ffbd-4783-bdaf-0d48643bfd36}, !- Handle
  OfficeMedium HTGSETP_SCH_YES_OPTIMUM_Default_SmrDsn, !- Name
  {9573b439-12c2-43f6-9e6a-98981f5ad205}, !- Schedule Type Limits Name
  ,                                       !- Interpolate to Timestep
  24,                                     !- Hour 1
  0,                                      !- Minute 1
  15.6;                                   !- Value Until Time 1

OS:Schedule:Day,
  {e0ef6f87-f559-4a50-a541-dccf5f2e45b6}, !- Handle
  OfficeMedium HTGSETP_SCH_YES_OPTIMUM_WntrDsn, !- Name
  {9573b439-12c2-43f6-9e6a-98981f5ad205}, !- Schedule Type Limits Name
  ,                                       !- Interpolate to Timestep
  5,                                      !- Hour 1
  0,                                      !- Minute 1
  15.6,                                   !- Value Until Time 1
  6,                                      !- Hour 2
  0,                                      !- Minute 2
  17.6,                                   !- Value Until Time 2
  7,                                      !- Hour 3
  0,                                      !- Minute 3
  19.6,                                   !- Value Until Time 3
  22,                                     !- Hour 4
  0,                                      !- Minute 4
  21,                                     !- Value Until Time 4
  24,                                     !- Hour 5
  0,                                      !- Minute 5
  15.6;                                   !- Value Until Time 5

OS:Schedule:Day,
  {df8d1835-5cbe-4469-8259-f9f98d48509d}, !- Handle
  OfficeMedium HTGSETP_SCH_YES_OPTIMUM_Wkdy, !- Name
  {9573b439-12c2-43f6-9e6a-98981f5ad205}, !- Schedule Type Limits Name
  ,                                       !- Interpolate to Timestep
  5,                                      !- Hour 1
  0,                                      !- Minute 1
  15.6,                                   !- Value Until Time 1
  6,                                      !- Hour 2
  0,                                      !- Minute 2
  17.8,                                   !- Value Until Time 2
  7,                                      !- Hour 3
  0,                                      !- Minute 3
  20,                                     !- Value Until Time 3
  22,                                     !- Hour 4
  0,                                      !- Minute 4
  21,                                     !- Value Until Time 4
  24,                                     !- Hour 5
  0,                                      !- Minute 5
  15.6;                                   !- Value Until Time 5

OS:Schedule:Day,
  {55403c0a-3b37-4c84-87fd-394c0fb13df6}, !- Handle
  OfficeMedium HTGSETP_SCH_YES_OPTIMUM_Sat, !- Name
  {9573b439-12c2-43f6-9e6a-98981f5ad205}, !- Schedule Type Limits Name
  ,                                       !- Interpolate to Timestep
  5,                                      !- Hour 1
  0,                                      !- Minute 1
  15.6,                                   !- Value Until Time 1
  6,                                      !- Hour 2
  0,                                      !- Minute 2
  17.8,                                   !- Value Until Time 2
  7,                                      !- Hour 3
  0,                                      !- Minute 3
  20,                                     !- Value Until Time 3
  17,                                     !- Hour 4
  0,                                      !- Minute 4
  21,                                     !- Value Until Time 4
  24,                                     !- Hour 5
  0,                                      !- Minute 5
  15.6;                                   !- Value Until Time 5

OS:Schedule:Day,
  {ca0fda4c-8a72-4651-a00a-800c58518862}, !- Handle
  OfficeMedium HTGSETP_SCH_YES_OPTIMUM_Default 1, !- Name
  {9573b439-12c2-43f6-9e6a-98981f5ad205}, !- Schedule Type Limits Name
  ,                                       !- Interpolate to Timestep
  24,                                     !- Hour 1
  0,                                      !- Minute 1
  15.6;                                   !- Value Until Time 1

OS:Schedule:Day,
  {4d0cd569-e08e-4d16-960c-08e237e13d50}, !- Handle
  OfficeMedium HTGSETP_SCH_YES_OPTIMUM_Default_SmrDsn 1, !- Name
  {9573b439-12c2-43f6-9e6a-98981f5ad205}, !- Schedule Type Limits Name
  ,                                       !- Interpolate to Timestep
  24,                                     !- Hour 1
  0,                                      !- Minute 1
  15.6;                                   !- Value Until Time 1

OS:Schedule:Day,
  {68f22058-8b2e-4808-82b4-d271596a203d}, !- Handle
  OfficeMedium HTGSETP_SCH_YES_OPTIMUM_WntrDsn 1, !- Name
  {9573b439-12c2-43f6-9e6a-98981f5ad205}, !- Schedule Type Limits Name
  ,                                       !- Interpolate to Timestep
  5,                                      !- Hour 1
  0,                                      !- Minute 1
  15.6,                                   !- Value Until Time 1
  6,                                      !- Hour 2
  0,                                      !- Minute 2
  17.6,                                   !- Value Until Time 2
  7,                                      !- Hour 3
  0,                                      !- Minute 3
  19.6,                                   !- Value Until Time 3
  22,                                     !- Hour 4
  0,                                      !- Minute 4
  21,                                     !- Value Until Time 4
  24,                                     !- Hour 5
  0,                                      !- Minute 5
  15.6;                                   !- Value Until Time 5

OS:Schedule:Rule,
  {020b3d75-4360-4853-8c84-e55c2023f9b5}, !- Handle
  Schedule Rule 3,                        !- Name
  {7164b237-d286-496b-a94f-8339ad9ea6bb}, !- Schedule Ruleset Name
  0,                                      !- Rule Order
  {8991e5c5-5049-4179-b6b5-b1aa05aae138}, !- Day Schedule Name
  No,                                     !- Apply Sunday
  Yes,                                    !- Apply Monday
  Yes,                                    !- Apply Tuesday
  Yes,                                    !- Apply Wednesday
  Yes,                                    !- Apply Thursday
  Yes,                                    !- Apply Friday
  No,                                     !- Apply Saturday
  DateRange,                              !- Date Specification Type
  1,                                      !- Start Month
  1,                                      !- Start Day
  12,                                     !- End Month
  31;                                     !- End Day

OS:Schedule:Day,
  {8991e5c5-5049-4179-b6b5-b1aa05aae138}, !- Handle
  Schedule Day 5,                         !- Name
  {9573b439-12c2-43f6-9e6a-98981f5ad205}, !- Schedule Type Limits Name
  ,                                       !- Interpolate to Timestep
  5,                                      !- Hour 1
  0,                                      !- Minute 1
  15.6,                                   !- Value Until Time 1
  6,                                      !- Hour 2
  0,                                      !- Minute 2
  17.8,                                   !- Value Until Time 2
  7,                                      !- Hour 3
  0,                                      !- Minute 3
  20,                                     !- Value Until Time 3
  22,                                     !- Hour 4
  0,                                      !- Minute 4
  21,                                     !- Value Until Time 4
  24,                                     !- Hour 5
  0,                                      !- Minute 5
  15.6;                                   !- Value Until Time 5

OS:Schedule:Rule,
  {3f442c6d-0b55-45c1-8b16-2a69244c46cf}, !- Handle
  Schedule Rule 4,                        !- Name
  {7164b237-d286-496b-a94f-8339ad9ea6bb}, !- Schedule Ruleset Name
  1,                                      !- Rule Order
  {2f0a7220-0dbc-4203-b7b0-65be0b378e06}, !- Day Schedule Name
  No,                                     !- Apply Sunday
  No,                                     !- Apply Monday
  No,                                     !- Apply Tuesday
  No,                                     !- Apply Wednesday
  No,                                     !- Apply Thursday
  No,                                     !- Apply Friday
  Yes,                                    !- Apply Saturday
  DateRange,                              !- Date Specification Type
  1,                                      !- Start Month
  1,                                      !- Start Day
  12,                                     !- End Month
  31;                                     !- End Day

OS:Schedule:Day,
  {2f0a7220-0dbc-4203-b7b0-65be0b378e06}, !- Handle
  Schedule Day 6,                         !- Name
  {9573b439-12c2-43f6-9e6a-98981f5ad205}, !- Schedule Type Limits Name
  ,                                       !- Interpolate to Timestep
  5,                                      !- Hour 1
  0,                                      !- Minute 1
  15.6,                                   !- Value Until Time 1
  6,                                      !- Hour 2
  0,                                      !- Minute 2
  17.8,                                   !- Value Until Time 2
  7,                                      !- Hour 3
  0,                                      !- Minute 3
  20,                                     !- Value Until Time 3
  17,                                     !- Hour 4
  0,                                      !- Minute 4
  21,                                     !- Value Until Time 4
  24,                                     !- Hour 5
  0,                                      !- Minute 5
  15.6;                                   !- Value Until Time 5

OS:Schedule:Ruleset,
  {fc623590-53cd-464a-810f-2d5d678b97a6}, !- Handle
  Generic Office Equipment,               !- Name
  {c7e9a413-094d-420d-8bab-53fb60bd013c}, !- Schedule Type Limits Name
  {d9558018-778a-4be1-b6ac-fd31d5e54ce2}, !- Default Day Schedule Name
  {26eef671-2bb3-4417-bcce-6f8cc45821fe}, !- Summer Design Day Schedule Name
  {4619cd79-f42e-41ff-a0d1-7197e934922b}, !- Winter Design Day Schedule Name
  {cf0f4a7e-245e-4a52-af77-e6f90e8fc7e1}; !- Holiday Schedule Name

OS:Schedule:Day,
  {d9558018-778a-4be1-b6ac-fd31d5e54ce2}, !- Handle
  Schedule Day 7,                         !- Name
  {c7e9a413-094d-420d-8bab-53fb60bd013c}, !- Schedule Type Limits Name
  ,                                       !- Interpolate to Timestep