
OS:Version,
  {ffdd232d-c0cc-495d-8cd9-5e46014751ce}, !- Handle
  3.0.1;                                  !- Version Identifier

OS:Building,
  {669e1b21-5653-4dca-a8e6-c101a97a8940}, !- Handle
  Building 1,                             !- Name
  ,                                       !- Building Sector Type
  -0,                                     !- North Axis {deg}
  ,                                       !- Nominal Floor to Floor Height {m}
  ,                                       !- Space Type Name
  {28f0d4cd-99e0-4dc9-959a-52e72f79f58f}, !- Default Construction Set Name
  ,                                       !- Default Schedule Set Name
  ,                                       !- Standards Number of Stories
  ,                                       !- Standards Number of Above Ground Stories
  ,                                       !- Standards Template
  MediumOffice;                           !- Standards Building Type

OS:Facility,
  {253e3e36-8e09-4d89-a7d2-e045d59acfdb}; !- Handle

OS:Site,
  {8cf141fb-dfb4-473d-93ce-c30d757b5ba8}, !- Handle
  Site 1,                                 !- Name
  ,                                       !- Latitude {deg}
  ,                                       !- Longitude {deg}
  ,                                       !- Time Zone {hr}
  ,                                       !- Elevation {m}
  City;                                   !- Terrain

OS:SimulationControl,
  {c3b22543-cd94-4d52-8aa7-f2825c98bc21}, !- Handle
  Yes,                                    !- Do Zone Sizing Calculation
  Yes,                                    !- Do System Sizing Calculation
  Yes,                                    !- Do Plant Sizing Calculation
  No,                                     !- Run Simulation for Sizing Periods
  Yes,                                    !- Run Simulation for Weather File Run Periods
  ,                                       !- Loads Convergence Tolerance Value {W}
  ,                                       !- Temperature Convergence Tolerance Value {deltaC}
  FullExteriorWithReflections;            !- Solar Distribution

OS:Sizing:Parameters,
  {b695381d-ca6e-4ae7-9b4a-9a6c852fd50b}, !- Handle
  1.25,                                   !- Heating Sizing Factor
  1.15;                                   !- Cooling Sizing Factor

OS:Timestep,
  {d6c65190-a825-4ed2-923c-47bc98f3fcce}, !- Handle
  6;                                      !- Number of Timesteps per Hour

OS:ShadowCalculation,
  {58be2c50-fe01-4c1f-816c-96f3f7825cb8}, !- Handle
  PolygonClipping,                        !- Shading Calculation Method
  Periodic,                               !- Shading Calculation Update Frequency Method
  30,                                     !- Shading Calculation Update Frequency
  15000,                                  !- Maximum Figures in Shadow Overlap Calculations
  ,                                       !- Polygon Clipping Algorithm
  512,                                    !- Pixel Counting Resolution
  ,                                       !- Sky Diffuse Modeling Algorithm
  No,                                     !- Output External Shading Calculation Results
  No,                                     !- Disable Self-Shading Within Shading Zone Groups
  No;                                     !- Disable Self-Shading From Shading Zone Groups to Other Zones

OS:HeatBalanceAlgorithm,
  {7521effb-cf71-4a6b-b0a4-dc4f4fd8be96}, !- Handle
  ConductionTransferFunction,             !- Algorithm
  200;                                    !- Surface Temperature Upper Limit {C}

OS:RunPeriod,
  {52d5254d-e465-4693-92e4-12adc3d85f7a}, !- Handle
  Run Period 1,                           !- Name
  1,                                      !- Begin Month
  1,                                      !- Begin Day of Month
  1,                                      !- End Month
  31,                                     !- End Day of Month
  ,                                       !- Use Weather File Holidays and Special Days
  ,                                       !- Use Weather File Daylight Saving Period
  ,                                       !- Apply Weekend Holiday Rule
  ,                                       !- Use Weather File Rain Indicators
  ,                                       !- Use Weather File Snow Indicators
  ;                                       !- Number of Times Runperiod to be Repeated

OS:LifeCycleCost:Parameters,
  {38f57041-86dc-43df-9021-65c77a7c2846}, !- Handle
  ,                                       !- Analysis Type
  ,                                       !- Discounting Convention
  ,                                       !- Inflation Approach
  ,                                       !- Real Discount Rate
  ,                                       !- Nominal Discount Rate
  ,                                       !- Inflation
  ,                                       !- Base Date Month
  ,                                       !- Base Date Year
  ,                                       !- Service Date Month
  ,                                       !- Service Date Year
  ;                                       !- Length of Study Period in Years

OS:WeatherFile,
  {0010e9a7-0725-4675-9a1d-86e56c316ee0}, !- Handle
  Boston Logan IntL Arpt,                 !- City
  MA,                                     !- State Province Region
  USA,                                    !- Country
  TMY3,                                   !- Data Source
  725090,                                 !- WMO Number
  42.37,                                  !- Latitude {deg}
  -71.02,                                 !- Longitude {deg}
  -5,                                     !- Time Zone {hr}
  6,                                      !- Elevation {m}
  C:/Users/Administrator/ladybug_tools/resources/weather/USA_MA_Boston-Logan.Intl.AP.725090_TMY3/USA_MA_Boston-Logan.Intl.AP.725090_TMY3.epw, !- Url
  B65824C3;                               !- Checksum

OS:ScheduleTypeLimits,
  {14bcb712-023e-4d87-b993-3279f6bb25e7}, !- Handle
  Temperature,                            !- Name
  -273.15,                                !- Lower Limit Value
  ,                                       !- Upper Limit Value
  Continuous,                             !- Numeric Type
  Temperature;                            !- Unit Type

OS:ScheduleTypeLimits,
  {fc5694af-e4be-4c4a-808f-233cec809f6b}, !- Handle
  Activity Level,                         !- Name
  0,                                      !- Lower Limit Value
  ,                                       !- Upper Limit Value
  Continuous,                             !- Numeric Type
  ActivityLevel;                          !- Unit Type

OS:ScheduleTypeLimits,
  {818d058d-0d37-4766-bd4e-b86f36bf517e}, !- Handle
  Fractional,                             !- Name
  0,                                      !- Lower Limit Value
  1,                                      !- Upper Limit Value
  Continuous,                             !- Numeric Type
  Dimensionless;                          !- Unit Type

OS:Schedule:Ruleset,
  {6f1f36ed-e0d4-4210-bca5-12d4f7b0664e}, !- Handle
  Generic Office Infiltration,            !- Name
  {818d058d-0d37-4766-bd4e-b86f36bf517e}, !- Schedule Type Limits Name
  {bc9cf17d-87af-4203-986f-2822e5c7d000}, !- Default Day Schedule Name
  {7134ff30-9694-4d02-9238-5f763caee787}, !- Summer Design Day Schedule Name
  {af3010d9-d80b-4a78-a198-e1ae9c81449b}, !- Winter Design Day Schedule Name
  {75a486c0-9be5-4b4b-b16d-661f1857af3f}; !- Holiday Schedule Name

OS:Schedule:Day,
  {bc9cf17d-87af-4203-986f-2822e5c7d000}, !- Handle
  Schedule Day 1,                         !- Name
  {818d058d-0d37-4766-bd4e-b86f36bf517e}, !- Schedule Type Limits Name
  ,                                       !- Interpolate to Timestep
  24,                                     !- Hour 1
  0,                                      !- Minute 1
  1;                                      !- Value Until Time 1

OS:Schedule:Day,
  {05fe2f5b-90a9-4d18-849b-d4cd4329ee6c}, !- Handle
  OfficeMedium INFIL_SCH_PNNL_Default,    !- Name
  {818d058d-0d37-4766-bd4e-b86f36bf517e}, !- Schedule Type Limits Name
  ,                                       !- Interpolate to Timestep
  24,                                     !- Hour 1
  0,                                      !- Minute 1
  1;                                      !- Value Until Time 1

OS:Schedule:Day,
  {293aaa32-7c7e-4ffd-a747-c272d3143a75}, !- Handle
  OfficeMedium INFIL_SCH_PNNL_Wkdy_SmrDsn, !- Name
  {818d058d-0d37-4766-bd4e-b86f36bf517e}, !- Schedule Type Limits Name
  ,                                       !- Interpolate to Timestep
  6,                                      !- Hour 1
  0,                                      !- Minute 1
  1,                                      !- Value Until Time 1
  22,                                     !- Hour 2
  0,                                      !- Minute 2
  0.25,                                   !- Value Until Time 2
  24,                                     !- Hour 3
  0,                                      !- Minute 3
  1;                                      !- Value Until Time 3

OS:Schedule:Day,
  {01a519e3-e6bb-4138-88c1-19fe9425a796}, !- Handle
  OfficeMedium INFIL_SCH_PNNL_Sat_WntrDsn, !- Name
  {818d058d-0d37-4766-bd4e-b86f36bf517e}, !- Schedule Type Limits Name
  ,                                       !- Interpolate to Timestep
  6,                                      !- Hour 1
  0,                                      !- Minute 1
  1,                                      !- Value Until Time 1
  18,                                     !- Hour 2
  0,                                      !- Minute 2
  0.25,                                   !- Value Until Time 2
  24,                                     !- Hour 3
  0,                                      !- Minute 3
  1;                                      !- Value Until Time 3

OS:Schedule:Day,
  {6f0a4c46-a418-4539-b120-0a319dc05daf}, !- Handle
  OfficeMedium INFIL_SCH_PNNL_Wkdy,       !- Name
  {818d058d-0d37-4766-bd4e-b86f36bf517e}, !- Schedule Type Limits Name
  ,                                       !- Interpolate to Timestep
  6,                                      !- Hour 1
  0,                                      !- Minute 1
  1,                                      !- Value Until Time 1
  22,                                     !- Hour 2
  0,                                      !- Minute 2
  0.25,                                   !- Value Until Time 2
  24,                                     !- Hour 3
  0,                                      !- Minute 3
  1;                                      !- Value Until Time 3

OS:Schedule:Day,
  {a03dab9b-a662-40f9-997a-fc50209dd037}, !- Handle
  OfficeMedium INFIL_SCH_PNNL_Sat,        !- Name
  {818d058d-0d37-4766-bd4e-b86f36bf517e}, !- Schedule Type Limits Name
  ,                                       !- Interpolate to Timestep
  6,                                      !- Hour 1
  0,                                      !- Minute 1
  1,                                      !- Value Until Time 1
  18,                                     !- Hour 2
  0,                                      !- Minute 2
  0.25,                                   !- Value Until Time 2
  24,                                     !- Hour 3
  0,                                      !- Minute 3
  1;                                      !- Value Until Time 3

OS:Schedule:Day,
  {75a486c0-9be5-4b4b-b16d-661f1857af3f}, !- Handle
  OfficeMedium INFIL_SCH_PNNL_Default 1,  !- Name
  {818d058d-0d37-4766-bd4e-b86f36bf517e}, !- Schedule Type Limits Name
  ,                                       !- Interpolate to Timestep
  24,                                     !- Hour 1
  0,                                      !- Minute 1
  1;                                      !- Value Until Time 1

OS:Schedule:Day,
  {7134ff30-9694-4d02-9238-5f763caee787}, !- Handle
  OfficeMedium INFIL_SCH_PNNL_Wkdy_SmrDsn 1, !- Name
  {818d058d-0d37-4766-bd4e-b86f36bf517e}, !- Schedule Type Limits Name
  ,                                       !- Interpolate to Timestep
  6,                                      !- Hour 1
  0,                                      !- Minute 1
  1,                                      !- Value Until Time 1
  22,                                     !- Hour 2
  0,                                      !- Minute 2
  0.25,                                   !- Value Until Time 2
  24,                                     !- Hour 3
  0,                                      !- Minute 3
  1;                                      !- Value Until Time 3

OS:Schedule:Day,
  {af3010d9-d80b-4a78-a198-e1ae9c81449b}, !- Handle
  OfficeMedium INFIL_SCH_PNNL_Sat_WntrDsn 1, !- Name
  {818d058d-0d37-4766-bd4e-b86f36bf517e}, !- Schedule Type Limits Name
  ,                                       !- Interpolate to Timestep
  6,                                      !- Hour 1
  0,                                      !- Minute 1
  1,                                      !- Value Until Time 1
  18,                                     !- Hour 2
  0,                                      !- Minute 2
  0.25,                                   !- Value Until Time 2
  24,                                     !- Hour 3
  0,                                      !- Minute 3
  1;                                      !- Value Until Time 3

OS:Schedule:Rule,
  {40fa8baf-18ef-46b7-a761-f20704639912}, !- Handle
  Schedule Rule 1,                        !- Name
  {6f1f36ed-e0d4-4210-bca5-12d4f7b0664e}, !- Schedule Ruleset Name
  0,                                      !- Rule Order
  {a7224217-b33b-4c69-859e-63707f35eb42}, !- Day Schedule Name
  No,                                     !- Apply Sunday
  Yes,                                    !- Apply Monday
  Yes,                                    !- Apply Tuesday
  Yes,                                    !- Apply Wednesday
  Yes,                                    !- Apply Thursday
  Yes,                                    !- Apply Friday
  No,                                     !- Apply Saturday
  DateRange,                              !- Date Specification Type
  1,                                      !- Start Month
  1,                                      !- Start Day
  12,                                     !- End Month
  31;                                     !- End Day

OS:Schedule:Day,
  {a7224217-b33b-4c69-859e-63707f35eb42}, !- Handle
  Schedule Day 2,                         !- Name
  {818d058d-0d37-4766-bd4e-b86f36bf517e}, !- Schedule Type Limits Name
  ,                                       !- Interpolate to Timestep
  6,                                      !- Hour 1
  0,                                      !- Minute 1
  1,                                      !- Value Until Time 1
  22,                                     !- Hour 2
  0,                                      !- Minute 2
  0.25,                                   !- Value Until Time 2
  24,                                     !- Hour 3
  0,                                      !- Minute 3
  1;                                      !- Value Until Time 3

OS:YearDescription,
  {c91cd70e-751e-4778-b5e0-29f06dcf3893}, !- Handle
  ,                                       !- Calendar Year
  Sunday;                                 !- Day of Week for Start Day

OS:Schedule:Rule,
  {7ff75573-32bf-434d-ba34-b9731d87271f}, !- Handle
  Schedule Rule 2,                        !- Name
  {6f1f36ed-e0d4-4210-bca5-12d4f7b0664e}, !- Schedule Ruleset Name
  1,                                      !- Rule Order
  {3a1b51a8-f79a-48c0-be91-78e8f8e0447d}, !- Day Schedule Name
  No,                                     !- Apply Sunday
  No,                                     !- Apply Monday
  No,                                     !- Apply Tuesday
  No,                                     !- Apply Wednesday
  No,                                     !- Apply Thursday
  No,                                     !- Apply Friday
  Yes,                                    !- Apply Saturday
  DateRange,                              !- Date Specification Type
  1,                                      !- Start Month
  1,                                      !- Start Day
  12,                                     !- End Month
  31;                                     !- End Day

OS:Schedule:Day,
  {3a1b51a8-f79a-48c0-be91-78e8f8e0447d}, !- Handle
  Schedule Day 3,                         !- Name
  {818d058d-0d37-4766-bd4e-b86f36bf517e}, !- Schedule Type Limits Name
  ,                                       !- Interpolate to Timestep
  6,                                      !- Hour 1
  0,                                      !- Minute 1
  1,                                      !- Value Until Time 1
  18,                                     !- Hour 2
  0,                                      !- Minute 2
  0.25,                                   !- Value Until Time 2
  24,                                     !- Hour 3
  0,                                      !- Minute 3
  1;                                      !- Value Until Time 3

OS:Schedule:Ruleset,
  {16834163-3f1b-4f64-8d8f-9d0fe5f362ea}, !- Handle
  Generic Office Heating,                 !- Name
  {14bcb712-023e-4d87-b993-3279f6bb25e7}, !- Schedule Type Limits Name
  {b15b1955-bb7c-43bd-b6a3-16236e5709c9}, !- Default Day Schedule Name
  {c1baecea-2d0d-46bd-9ca4-ed27a5c6ae20}, !- Summer Design Day Schedule Name
  {ff9d2682-0313-4c7d-8a5e-2dbce97ba6b1}, !- Winter Design Day Schedule Name
  {3ea1e274-6791-48c6-b353-7fd513668a0d}; !- Holiday Schedule Name

OS:Schedule:Day,
  {b15b1955-bb7c-43bd-b6a3-16236e5709c9}, !- Handle
  Schedule Day 4,                         !- Name
  {14bcb712-023e-4d87-b993-3279f6bb25e7}, !- Schedule Type Limits Name
  ,                                       !- Interpolate to Timestep
  24,                                     !- Hour 1
  0,                                      !- Minute 1
  15.6;                                   !- Value Until Time 1

OS:Schedule:Day,
  {1bf4793a-9251-41af-923c-73b95c07c2c7}, !- Handle
  OfficeMedium HTGSETP_SCH_YES_OPTIMUM_Default, !- Name
  {14bcb712-023e-4d87-b993-3279f6bb25e7}, !- Schedule Type Limits Name
  ,                                       !- Interpolate to Timestep
  24,                                     !- Hour 1
  0,                                      !- Minute 1
  15.6;                                   !- Value Until Time 1

OS:Schedule:Day,
  {5ced0d46-631d-4e23-b0dc-aa97739ecee3}, !- Handle
  OfficeMedium HTGSETP_SCH_YES_OPTIMUM_Default_SmrDsn, !- Name
  {14bcb712-023e-4d87-b993-3279f6bb25e7}, !- Schedule Type Limits Name
  ,                                       !- Interpolate to Timestep
  24,                                     !- Hour 1
  0,                                      !- Minute 1
  15.6;                                   !- Value Until Time 1

OS:Schedule:Day,
  {6363efba-71cf-412d-bf3d-7f59c4a0167f}, !- Handle
  OfficeMedium HTGSETP_SCH_YES_OPTIMUM_WntrDsn, !- Name
  {14bcb712-023e-4d87-b993-3279f6bb25e7}, !- Schedule Type Limits Name
  ,                                       !- Interpolate to Timestep
  5,                                      !- Hour 1
  0,                                      !- Minute 1
  15.6,                                   !- Value Until Time 1
  6,                                      !- Hour 2
  0,                                      !- Minute 2
  17.6,                                   !- Value Until Time 2
  7,                                      !- Hour 3
  0,                                      !- Minute 3
  19.6,                                   !- Value Until Time 3
  22,                                     !- Hour 4
  0,                                      !- Minute 4
  21,                                     !- Value Until Time 4
  24,                                     !- Hour 5
  0,                                      !- Minute 5
  15.6;                                   !- Value Until Time 5

OS:Schedule:Day,
  {8e1876a0-a10f-4742-91b7-d78076a5f450}, !- Handle
  OfficeMedium HTGSETP_SCH_YES_OPTIMUM_Wkdy, !- Name
  {14bcb712-023e-4d87-b993-3279f6bb25e7}, !- Schedule Type Limits Name
  ,                                       !- Interpolate to Timestep
  5,                                      !- Hour 1
  0,                                      !- Minute 1
  15.6,                                   !- Value Until Time 1
  6,                                      !- Hour 2
  0,                                      !- Minute 2
  17.8,                                   !- Value Until Time 2
  7,                                      !- Hour 3
  0,                                      !- Minute 3
  20,                                     !- Value Until Time 3
  22,                                     !- Hour 4
  0,                                      !- Minute 4
  21,                                     !- Value Until Time 4
  24,                                     !- Hour 5
  0,                                      !- Minute 5
  15.6;                                   !- Value Until Time 5

OS:Schedule:Day,
  {cbe038ab-470a-4958-81db-dd768f9a970f}, !- Handle
  OfficeMedium HTGSETP_SCH_YES_OPTIMUM_Sat, !- Name
  {14bcb712-023e-4d87-b993-3279f6bb25e7}, !- Schedule Type Limits Name
  ,                                       !- Interpolate to Timestep
  5,                                      !- Hour 1
  0,                                      !- Minute 1
  15.6,                                   !- Value Until Time 1
  6,                                      !- Hour 2
  0,                                      !- Minute 2
  17.8,                                   !- Value Until Time 2
  7,                                      !- Hour 3
  0,                                      !- Minute 3
  20,                                     !- Value Until Time 3
  17,                                     !- Hour 4
  0,                                      !- Minute 4
  21,                                     !- Value Until Time 4
  24,                                     !- Hour 5
  0,                                      !- Minute 5
  15.6;                                   !- Value Until Time 5

OS:Schedule:Day,
  {3ea1e274-6791-48c6-b353-7fd513668a0d}, !- Handle
  OfficeMedium HTGSETP_SCH_YES_OPTIMUM_Default 1, !- Name
  {14bcb712-023e-4d87-b993-3279f6bb25e7}, !- Schedule Type Limits Name
  ,                                       !- Interpolate to Timestep
  24,                                     !- Hour 1
  0,                                      !- Minute 1
  15.6;                                   !- Value Until Time 1

OS:Schedule:Day,
  {c1baecea-2d0d-46bd-9ca4-ed27a5c6ae20}, !- Handle
  OfficeMedium HTGSETP_SCH_YES_OPTIMUM_Default_SmrDsn 1, !- Name
  {14bcb712-023e-4d87-b993-3279f6bb25e7}, !- Schedule Type Limits Name
  ,                                       !- Interpolate to Timestep
  24,                                     !- Hour 1
  0,                                      !- Minute 1
  15.6;                                   !- Value Until Time 1

OS:Schedule:Day,
  {ff9d2682-0313-4c7d-8a5e-2dbce97ba6b1}, !- Handle
  OfficeMedium HTGSETP_SCH_YES_OPTIMUM_WntrDsn 1, !- Name
  {14bcb712-023e-4d87-b993-3279f6bb25e7}, !- Schedule Type Limits Name
  ,                                       !- Interpolate to Timestep
  5,                                      !- Hour 1
  0,                                      !- Minute 1
  15.6,                                   !- Value Until Time 1
  6,                                      !- Hour 2
  0,                                      !- Minute 2
  17.6,                                   !- Value Until Time 2
  7,                                      !- Hour 3
  0,                                      !- Minute 3
  19.6,                                   !- Value Until Time 3
  22,                                     !- Hour 4
  0,                                      !- Minute 4
  21,                                     !- Value Until Time 4
  24,                                     !- Hour 5
  0,                                      !- Minute 5
  15.6;                                   !- Value Until Time 5

OS:Schedule:Rule,
  {ddd4fee8-6a1f-446f-83a9-8b82e6bc7d56}, !- Handle
  Schedule Rule 3,                        !- Name
  {16834163-3f1b-4f64-8d8f-9d0fe5f362ea}, !- Schedule Ruleset Name
  0,                                      !- Rule Order
  {45392614-a7c3-4f37-bc69-cd602166c7a8}, !- Day Schedule Name
  No,                                     !- Apply Sunday
  Yes,                                    !- Apply Monday
  Yes,                                    !- Apply Tuesday
  Yes,                                    !- Apply Wednesday
  Yes,                                    !- Apply Thursday
  Yes,                                    !- Apply Friday
  No,                                     !- Apply Saturday
  DateRange,                              !- Date Specification Type
  1,                                      !- Start Month
  1,                                      !- Start Day
  12,                                     !- End Month
  31;                                     !- End Day

OS:Schedule:Day,
  {45392614-a7c3-4f37-bc69-cd602166c7a8}, !- Handle
  Schedule Day 5,                         !- Name
  {14bcb712-023e-4d87-b993-3279f6bb25e7}, !- Schedule Type Limits Name
  ,                                       !- Interpolate to Timestep
  5,                                      !- Hour 1
  0,                                      !- Minute 1
  15.6,                                   !- Value Until Time 1
  6,                                      !- Hour 2
  0,                                      !- Minute 2
  17.8,                                   !- Value Until Time 2
  7,                                      !- Hour 3
  0,                                      !- Minute 3
  20,                                     !- Value Until Time 3
  22,                                     !- Hour 4
  0,                                      !- Minute 4
  21,                                     !- Value Until Time 4
  24,                                     !- Hour 5
  0,                                      !- Minute 5
  15.6;                                   !- Value Until Time 5

OS:Schedule:Rule,
  {53d7f50b-f2de-4bda-92f1-51a3c7e28910}, !- Handle
  Schedule Rule 4,                        !- Name
  {16834163-3f1b-4f64-8d8f-9d0fe5f362ea}, !- Schedule Ruleset Name
  1,                                      !- Rule Order
  {b188c911-ee31-449a-bd82-323a7df79968}, !- Day Schedule Name
  No,                                     !- Apply Sunday
  No,                                     !- Apply Monday
  No,                                     !- Apply Tuesday
  No,                                     !- Apply Wednesday
  No,                                     !- Apply Thursday
  No,                                     !- Apply Friday
  Yes,                                    !- Apply Saturday
  DateRange,                              !- Date Specification Type
  1,                                      !- Start Month
  1,                                      !- Start Day
  12,                                     !- End Month
  31;                                     !- End Day

OS:Schedule:Day,
  {b188c911-ee31-449a-bd82-323a7df79968}, !- Handle
  Schedule Day 6,                         !- Name
  {14bcb712-023e-4d87-b993-3279f6bb25e7}, !- Schedule Type Limits Name
  ,                                       !- Interpolate to Timestep
  5,                                      !- Hour 1
  0,                                      !- Minute 1
  15.6,                                   !- Value Until Time 1
  6,                                      !- Hour 2
  0,                                      !- Minute 2
  17.8,                                   !- Value Until Time 2
  7,                                      !- Hour 3
  0,                                      !- Minute 3
  20,                                     !- Value Until Time 3
  17,                                     !- Hour 4
  0,                                      !- Minute 4
  21,                                     !- Value Until Time 4
  24,                                     !- Hour 5
  0,                                      !- Minute 5
  15.6;                                   !- Value Until Time 5

OS:Schedule:Ruleset,
  {2d8c43e6-cce3-4c58-99e2-ad9aa43f075d}, !- Handle
  Generic Office Equipment,               !- Name
  {818d058d-0d37-4766-bd4e-b86f36bf517e}, !- Schedule Type Limits Name
  {c57a558d-4884-4516-b7ea-328bd6b4f08e}, !- Default Day Schedule Name
  {f89ac942-0649-4276-98ce-fe739789e730}, !- Summer Design Day Schedule Name
  {98618678-87e7-4616-8a82-a54f9977f729}, !- Winter Design Day Schedule Name
  {4950c143-2baf-4019-8514-bd0a82610641}; !- Holiday Schedule Name

OS:Schedule:Day,
  {c57a558d-4884-4516-b7ea-328bd6b4f08e}, !- Handle
  Schedule Day 7,                         !- Name
  {818d058d-0d37-4766-bd4e-b86f36bf517e}, !- Schedule Type Limits Name
  ,                                       !- Interpolate to Timestep