
OS:Version,
  {72a0ef73-91c1-463b-8593-96ebeff53bf5}, !- Handle
  3.0.1;                                  !- Version Identifier

OS:Building,
  {8a7ac7fb-77f0-4843-8163-b7702916757b}, !- Handle
  Building 1,                             !- Name
  ,                                       !- Building Sector Type
  -0,                                     !- North Axis {deg}
  ,                                       !- Nominal Floor to Floor Height {m}
  ,                                       !- Space Type Name
  {016f62b4-b91e-46e7-8c31-3e15fe51a119}, !- Default Construction Set Name
  ,                                       !- Default Schedule Set Name
  ,                                       !- Standards Number of Stories
  ,                                       !- Standards Number of Above Ground Stories
  ,                                       !- Standards Template
  MediumOffice;                           !- Standards Building Type

OS:Facility,
  {62fbe6c4-f234-4338-a6ab-6f23a5b446a5}; !- Handle

OS:Site,
  {d43d22a0-8cf3-441f-9bd1-134a586c76ee}, !- Handle
  Site 1,                                 !- Name
  ,                                       !- Latitude {deg}
  ,                                       !- Longitude {deg}
  ,                                       !- Time Zone {hr}
  ,                                       !- Elevation {m}
  City;                                   !- Terrain

OS:SimulationControl,
  {922840b7-9e07-4533-ba1f-e6b47bbacfae}, !- Handle
  Yes,                                    !- Do Zone Sizing Calculation
  Yes,                                    !- Do System Sizing Calculation
  Yes,                                    !- Do Plant Sizing Calculation
  No,                                     !- Run Simulation for Sizing Periods
  Yes,                                    !- Run Simulation for Weather File Run Periods
  ,                                       !- Loads Convergence Tolerance Value {W}
  ,                                       !- Temperature Convergence Tolerance Value {deltaC}
  FullExteriorWithReflections;            !- Solar Distribution

OS:Sizing:Parameters,
  {3cf2ab58-5759-4ff6-a852-15a84b6f98a5}, !- Handle
  1.25,                                   !- Heating Sizing Factor
  1.15;                                   !- Cooling Sizing Factor

OS:Timestep,
  {b62cb440-8703-4b87-880b-2f167fe1bad4}, !- Handle
  6;                                      !- Number of Timesteps per Hour

OS:ShadowCalculation,
  {54e04556-4693-4775-aad7-ef90823eceee}, !- Handle
  PolygonClipping,                        !- Shading Calculation Method
  Periodic,                               !- Shading Calculation Update Frequency Method
  30,                                     !- Shading Calculation Update Frequency
  15000,                                  !- Maximum Figures in Shadow Overlap Calculations
  ,                                       !- Polygon Clipping Algorithm
  512,                                    !- Pixel Counting Resolution
  ,                                       !- Sky Diffuse Modeling Algorithm
  No,                                     !- Output External Shading Calculation Results
  No,                                     !- Disable Self-Shading Within Shading Zone Groups
  No;                                     !- Disable Self-Shading From Shading Zone Groups to Other Zones

OS:HeatBalanceAlgorithm,
  {92321809-0967-4d1e-852d-35cab22c3364}, !- Handle
  ConductionTransferFunction,             !- Algorithm
  200;                                    !- Surface Temperature Upper Limit {C}

OS:RunPeriod,
  {d6de5691-3bb4-4e50-a63b-b78b5acc95fa}, !- Handle
  Run Period 1,                           !- Name
  1,                                      !- Begin Month
  1,                                      !- Begin Day of Month
  1,                                      !- End Month
  31,                                     !- End Day of Month
  ,                                       !- Use Weather File Holidays and Special Days
  ,                                       !- Use Weather File Daylight Saving Period
  ,                                       !- Apply Weekend Holiday Rule
  ,                                       !- Use Weather File Rain Indicators
  ,                                       !- Use Weather File Snow Indicators
  ;                                       !- Number of Times Runperiod to be Repeated

OS:LifeCycleCost:Parameters,
  {02c9fe2e-f55b-47e9-b71c-14f2ff8ede25}, !- Handle
  ,                                       !- Analysis Type
  ,                                       !- Discounting Convention
  ,                                       !- Inflation Approach
  ,                                       !- Real Discount Rate
  ,                                       !- Nominal Discount Rate
  ,                                       !- Inflation
  ,                                       !- Base Date Month
  ,                                       !- Base Date Year
  ,                                       !- Service Date Month
  ,                                       !- Service Date Year
  ;                                       !- Length of Study Period in Years

OS:WeatherFile,
  {12f36b97-b858-462f-9a65-c8c6a2d3f8a9}, !- Handle
  Boston Logan IntL Arpt,                 !- City
  MA,                                     !- State Province Region
  USA,                                    !- Country
  TMY3,                                   !- Data Source
  725090,                                 !- WMO Number
  42.37,                                  !- Latitude {deg}
  -71.02,                                 !- Longitude {deg}
  -5,                                     !- Time Zone {hr}
  6,                                      !- Elevation {m}
  C:/Users/Administrator/ladybug_tools/resources/weather/USA_MA_Boston-Logan.Intl.AP.725090_TMY3/USA_MA_Boston-Logan.Intl.AP.725090_TMY3.epw, !- Url
  B65824C3;                               !- Checksum

OS:ScheduleTypeLimits,
  {d773bc7b-0d0d-4e84-95cb-3b8224b65776}, !- Handle
  Temperature,                            !- Name
  -273.15,                                !- Lower Limit Value
  ,                                       !- Upper Limit Value
  Continuous,                             !- Numeric Type
  Temperature;                            !- Unit Type

OS:ScheduleTypeLimits,
  {9c8748df-9062-4758-a323-f5009ded1833}, !- Handle
  Activity Level,                         !- Name
  0,                                      !- Lower Limit Value
  ,                                       !- Upper Limit Value
  Continuous,                             !- Numeric Type
  ActivityLevel;                          !- Unit Type

OS:ScheduleTypeLimits,
  {0f5d1338-eba8-4653-b85d-85d34cf55933}, !- Handle
  Fractional,                             !- Name
  0,                                      !- Lower Limit Value
  1,                                      !- Upper Limit Value
  Continuous,                             !- Numeric Type
  Dimensionless;                          !- Unit Type

OS:Schedule:Ruleset,
  {9d4bed6e-c489-4cdf-a404-fa6b11b871c6}, !- Handle
  Generic Office Infiltration,            !- Name
  {0f5d1338-eba8-4653-b85d-85d34cf55933}, !- Schedule Type Limits Name
  {2921ab53-03a5-4369-baab-950646468977}, !- Default Day Schedule Name
  {ec0f8729-da77-4d30-b344-0ec1093cb451}, !- Summer Design Day Schedule Name
  {d8cecd41-be74-432d-b0a4-3aecc56c7b07}, !- Winter Design Day Schedule Name
  {97da11b3-1f58-4d89-832a-5d44dc289d95}; !- Holiday Schedule Name

OS:Schedule:Day,
  {2921ab53-03a5-4369-baab-950646468977}, !- Handle
  Schedule Day 1,                         !- Name
  {0f5d1338-eba8-4653-b85d-85d34cf55933}, !- Schedule Type Limits Name
  ,                                       !- Interpolate to Timestep
  24,                                     !- Hour 1
  0,                                      !- Minute 1
  1;                                      !- Value Until Time 1

OS:Schedule:Day,
  {c719c891-d69c-4472-b271-c90a047ecc59}, !- Handle
  OfficeMedium INFIL_SCH_PNNL_Default,    !- Name
  {0f5d1338-eba8-4653-b85d-85d34cf55933}, !- Schedule Type Limits Name
  ,                                       !- Interpolate to Timestep
  24,                                     !- Hour 1
  0,                                      !- Minute 1
  1;                                      !- Value Until Time 1

OS:Schedule:Day,
  {be7d92b2-472f-4dac-a1d5-74db0d550429}, !- Handle
  OfficeMedium INFIL_SCH_PNNL_Wkdy_SmrDsn, !- Name
  {0f5d1338-eba8-4653-b85d-85d34cf55933}, !- Schedule Type Limits Name
  ,                                       !- Interpolate to Timestep
  6,                                      !- Hour 1
  0,                                      !- Minute 1
  1,                                      !- Value Until Time 1
  22,                                     !- Hour 2
  0,                                      !- Minute 2
  0.25,                                   !- Value Until Time 2
  24,                                     !- Hour 3
  0,                                      !- Minute 3
  1;                                      !- Value Until Time 3

OS:Schedule:Day,
  {676b4281-2e64-4957-945c-774a62c1e948}, !- Handle
  OfficeMedium INFIL_SCH_PNNL_Sat_WntrDsn, !- Name
  {0f5d1338-eba8-4653-b85d-85d34cf55933}, !- Schedule Type Limits Name
  ,                                       !- Interpolate to Timestep
  6,                                      !- Hour 1
  0,                                      !- Minute 1
  1,                                      !- Value Until Time 1
  18,                                     !- Hour 2
  0,                                      !- Minute 2
  0.25,                                   !- Value Until Time 2
  24,                                     !- Hour 3
  0,                                      !- Minute 3
  1;                                      !- Value Until Time 3

OS:Schedule:Day,
  {68c22975-72d5-47a0-b6f6-ca1984562e2a}, !- Handle
  OfficeMedium INFIL_SCH_PNNL_Wkdy,       !- Name
  {0f5d1338-eba8-4653-b85d-85d34cf55933}, !- Schedule Type Limits Name
  ,                                       !- Interpolate to Timestep
  6,                                      !- Hour 1
  0,                                      !- Minute 1
  1,                                      !- Value Until Time 1
  22,                                     !- Hour 2
  0,                                      !- Minute 2
  0.25,                                   !- Value Until Time 2
  24,                                     !- Hour 3
  0,                                      !- Minute 3
  1;                                      !- Value Until Time 3

OS:Schedule:Day,
  {1e15af02-b5ef-4123-ac4c-f25419623e08}, !- Handle
  OfficeMedium INFIL_SCH_PNNL_Sat,        !- Name
  {0f5d1338-eba8-4653-b85d-85d34cf55933}, !- Schedule Type Limits Name
  ,                                       !- Interpolate to Timestep
  6,                                      !- Hour 1
  0,                                      !- Minute 1
  1,                                      !- Value Until Time 1
  18,                                     !- Hour 2
  0,                                      !- Minute 2
  0.25,                                   !- Value Until Time 2
  24,                                     !- Hour 3
  0,                                      !- Minute 3
  1;                                      !- Value Until Time 3

OS:Schedule:Day,
  {97da11b3-1f58-4d89-832a-5d44dc289d95}, !- Handle
  OfficeMedium INFIL_SCH_PNNL_Default 1,  !- Name
  {0f5d1338-eba8-4653-b85d-85d34cf55933}, !- Schedule Type Limits Name
  ,                                       !- Interpolate to Timestep
  24,                                     !- Hour 1
  0,                                      !- Minute 1
  1;                                      !- Value Until Time 1

OS:Schedule:Day,
  {ec0f8729-da77-4d30-b344-0ec1093cb451}, !- Handle
  OfficeMedium INFIL_SCH_PNNL_Wkdy_SmrDsn 1, !- Name
  {0f5d1338-eba8-4653-b85d-85d34cf55933}, !- Schedule Type Limits Name
  ,                                       !- Interpolate to Timestep
  6,                                      !- Hour 1
  0,                                      !- Minute 1
  1,                                      !- Value Until Time 1
  22,                                     !- Hour 2
  0,                                      !- Minute 2
  0.25,                                   !- Value Until Time 2
  24,                                     !- Hour 3
  0,                                      !- Minute 3
  1;                                      !- Value Until Time 3

OS:Schedule:Day,
  {d8cecd41-be74-432d-b0a4-3aecc56c7b07}, !- Handle
  OfficeMedium INFIL_SCH_PNNL_Sat_WntrDsn 1, !- Name
  {0f5d1338-eba8-4653-b85d-85d34cf55933}, !- Schedule Type Limits Name
  ,                                       !- Interpolate to Timestep
  6,                                      !- Hour 1
  0,                                      !- Minute 1
  1,                                      !- Value Until Time 1
  18,                                     !- Hour 2
  0,                                      !- Minute 2
  0.25,                                   !- Value Until Time 2
  24,                                     !- Hour 3
  0,                                      !- Minute 3
  1;                                      !- Value Until Time 3

OS:Schedule:Rule,
  {6f29aaae-3fe3-4279-990c-831a5772a3d6}, !- Handle
  Schedule Rule 1,                        !- Name
  {9d4bed6e-c489-4cdf-a404-fa6b11b871c6}, !- Schedule Ruleset Name
  0,                                      !- Rule Order
  {8238f9ab-717d-4eaa-960c-0d4f7372d6a5}, !- Day Schedule Name
  No,                                     !- Apply Sunday
  Yes,                                    !- Apply Monday
  Yes,                                    !- Apply Tuesday
  Yes,                                    !- Apply Wednesday
  Yes,                                    !- Apply Thursday
  Yes,                                    !- Apply Friday
  No,                                     !- Apply Saturday
  DateRange,                              !- Date Specification Type
  1,                                      !- Start Month
  1,                                      !- Start Day
  12,                                     !- End Month
  31;                                     !- End Day

OS:Schedule:Day,
  {8238f9ab-717d-4eaa-960c-0d4f7372d6a5}, !- Handle
  Schedule Day 2,                         !- Name
  {0f5d1338-eba8-4653-b85d-85d34cf55933}, !- Schedule Type Limits Name
  ,                                       !- Interpolate to Timestep
  6,                                      !- Hour 1
  0,                                      !- Minute 1
  1,                                      !- Value Until Time 1
  22,                                     !- Hour 2
  0,                                      !- Minute 2
  0.25,                                   !- Value Until Time 2
  24,                                     !- Hour 3
  0,                                      !- Minute 3
  1;                                      !- Value Until Time 3

OS:YearDescription,
  {1fd2a122-b41a-4c53-a74c-c4f27a1f8a68}, !- Handle
  ,                                       !- Calendar Year
  Sunday;                                 !- Day of Week for Start Day

OS:Schedule:Rule,
  {2c9665b1-2b49-4151-b4eb-7a52cf3af818}, !- Handle
  Schedule Rule 2,                        !- Name
  {9d4bed6e-c489-4cdf-a404-fa6b11b871c6}, !- Schedule Ruleset Name
  1,                                      !- Rule Order
  {3db66730-2584-4200-b574-60a9f2df1528}, !- Day Schedule Name
  No,                                     !- Apply Sunday
  No,                                     !- Apply Monday
  No,                                     !- Apply Tuesday
  No,                                     !- Apply Wednesday
  No,                                     !- Apply Thursday
  No,                                     !- Apply Friday
  Yes,                                    !- Apply Saturday
  DateRange,                              !- Date Specification Type
  1,                                      !- Start Month
  1,                                      !- Start Day
  12,                                     !- End Month
  31;                                     !- End Day

OS:Schedule:Day,
  {3db66730-2584-4200-b574-60a9f2df1528}, !- Handle
  Schedule Day 3,                         !- Name
  {0f5d1338-eba8-4653-b85d-85d34cf55933}, !- Schedule Type Limits Name
  ,                                       !- Interpolate to Timestep
  6,                                      !- Hour 1
  0,                                      !- Minute 1
  1,                                      !- Value Until Time 1
  18,                                     !- Hour 2
  0,                                      !- Minute 2
  0.25,                                   !- Value Until Time 2
  24,                                     !- Hour 3
  0,                                      !- Minute 3
  1;                                      !- Value Until Time 3

OS:Schedule:Ruleset,
  {536daf68-b75a-4093-b937-179b66a6d357}, !- Handle
  Generic Office Heating,                 !- Name
  {d773bc7b-0d0d-4e84-95cb-3b8224b65776}, !- Schedule Type Limits Name
  {d4fb8b73-b7b4-4d80-ba28-3a2f53d94406}, !- Default Day Schedule Name
  {3c126723-094f-4d14-b236-777c2feb0931}, !- Summer Design Day Schedule Name
  {0a5af2f3-ccaa-4d7e-8865-6e0f2d3fed31}, !- Winter Design Day Schedule Name
  {85aa9c88-723e-43b6-b612-e5fb00088d08}; !- Holiday Schedule Name

OS:Schedule:Day,
  {d4fb8b73-b7b4-4d80-ba28-3a2f53d94406}, !- Handle
  Schedule Day 4,                         !- Name
  {d773bc7b-0d0d-4e84-95cb-3b8224b65776}, !- Schedule Type Limits Name
  ,                                       !- Interpolate to Timestep
  24,                                     !- Hour 1
  0,                                      !- Minute 1
  15.6;                                   !- Value Until Time 1

OS:Schedule:Day,
  {f776558a-2735-4a67-a601-9b1728afe010}, !- Handle
  OfficeMedium HTGSETP_SCH_YES_OPTIMUM_Default, !- Name
  {d773bc7b-0d0d-4e84-95cb-3b8224b65776}, !- Schedule Type Limits Name
  ,                                       !- Interpolate to Timestep
  24,                                     !- Hour 1
  0,                                      !- Minute 1
  15.6;                                   !- Value Until Time 1

OS:Schedule:Day,
  {9ac777cf-2333-40ad-93c5-6bfc6808112c}, !- Handle
  OfficeMedium HTGSETP_SCH_YES_OPTIMUM_Default_SmrDsn, !- Name
  {d773bc7b-0d0d-4e84-95cb-3b8224b65776}, !- Schedule Type Limits Name
  ,                                       !- Interpolate to Timestep
  24,                                     !- Hour 1
  0,                                      !- Minute 1
  15.6;                                   !- Value Until Time 1

OS:Schedule:Day,
  {d7714b1e-565e-44fe-b151-c57a70f09851}, !- Handle
  OfficeMedium HTGSETP_SCH_YES_OPTIMUM_WntrDsn, !- Name
  {d773bc7b-0d0d-4e84-95cb-3b8224b65776}, !- Schedule Type Limits Name
  ,                                       !- Interpolate to Timestep
  5,                                      !- Hour 1
  0,                                      !- Minute 1
  15.6,                                   !- Value Until Time 1
  6,                                      !- Hour 2
  0,                                      !- Minute 2
  17.6,                                   !- Value Until Time 2
  7,                                      !- Hour 3
  0,                                      !- Minute 3
  19.6,                                   !- Value Until Time 3
  22,                                     !- Hour 4
  0,                                      !- Minute 4
  21,                                     !- Value Until Time 4
  24,                                     !- Hour 5
  0,                                      !- Minute 5
  15.6;                                   !- Value Until Time 5

OS:Schedule:Day,
  {1d331e35-0b5e-4862-8846-623ccce31fec}, !- Handle
  OfficeMedium HTGSETP_SCH_YES_OPTIMUM_Wkdy, !- Name
  {d773bc7b-0d0d-4e84-95cb-3b8224b65776}, !- Schedule Type Limits Name
  ,                                       !- Interpolate to Timestep
  5,                                      !- Hour 1
  0,                                      !- Minute 1
  15.6,                                   !- Value Until Time 1
  6,                                      !- Hour 2
  0,                                      !- Minute 2
  17.8,                                   !- Value Until Time 2
  7,                                      !- Hour 3
  0,                                      !- Minute 3
  20,                                     !- Value Until Time 3
  22,                                     !- Hour 4
  0,                                      !- Minute 4
  21,                                     !- Value Until Time 4
  24,                                     !- Hour 5
  0,                                      !- Minute 5
  15.6;                                   !- Value Until Time 5

OS:Schedule:Day,
  {f8c19af0-e459-4ff8-aa95-68c2da1158e9}, !- Handle
  OfficeMedium HTGSETP_SCH_YES_OPTIMUM_Sat, !- Name
  {d773bc7b-0d0d-4e84-95cb-3b8224b65776}, !- Schedule Type Limits Name
  ,                                       !- Interpolate to Timestep
  5,                                      !- Hour 1
  0,                                      !- Minute 1
  15.6,                                   !- Value Until Time 1
  6,                                      !- Hour 2
  0,                                      !- Minute 2
  17.8,                                   !- Value Until Time 2
  7,                                      !- Hour 3
  0,                                      !- Minute 3
  20,                                     !- Value Until Time 3
  17,                                     !- Hour 4
  0,                                      !- Minute 4
  21,                                     !- Value Until Time 4
  24,                                     !- Hour 5
  0,                                      !- Minute 5
  15.6;                                   !- Value Until Time 5

OS:Schedule:Day,
  {85aa9c88-723e-43b6-b612-e5fb00088d08}, !- Handle
  OfficeMedium HTGSETP_SCH_YES_OPTIMUM_Default 1, !- Name
  {d773bc7b-0d0d-4e84-95cb-3b8224b65776}, !- Schedule Type Limits Name
  ,                                       !- Interpolate to Timestep
  24,                                     !- Hour 1
  0,                                      !- Minute 1
  15.6;                                   !- Value Until Time 1

OS:Schedule:Day,
  {3c126723-094f-4d14-b236-777c2feb0931}, !- Handle
  OfficeMedium HTGSETP_SCH_YES_OPTIMUM_Default_SmrDsn 1, !- Name
  {d773bc7b-0d0d-4e84-95cb-3b8224b65776}, !- Schedule Type Limits Name
  ,                                       !- Interpolate to Timestep
  24,                                     !- Hour 1
  0,                                      !- Minute 1
  15.6;                                   !- Value Until Time 1

OS:Schedule:Day,
  {0a5af2f3-ccaa-4d7e-8865-6e0f2d3fed31}, !- Handle
  OfficeMedium HTGSETP_SCH_YES_OPTIMUM_WntrDsn 1, !- Name
  {d773bc7b-0d0d-4e84-95cb-3b8224b65776}, !- Schedule Type Limits Name
  ,                                       !- Interpolate to Timestep
  5,                                      !- Hour 1
  0,                                      !- Minute 1
  15.6,                                   !- Value Until Time 1
  6,                                      !- Hour 2
  0,                                      !- Minute 2
  17.6,                                   !- Value Until Time 2
  7,                                      !- Hour 3
  0,                                      !- Minute 3
  19.6,                                   !- Value Until Time 3
  22,                                     !- Hour 4
  0,                                      !- Minute 4
  21,                                     !- Value Until Time 4
  24,                                     !- Hour 5
  0,                                      !- Minute 5
  15.6;                                   !- Value Until Time 5

OS:Schedule:Rule,
  {9264bd98-a310-421b-b2ac-af3489796424}, !- Handle
  Schedule Rule 3,                        !- Name
  {536daf68-b75a-4093-b937-179b66a6d357}, !- Schedule Ruleset Name
  0,                                      !- Rule Order
  {df822895-62e5-40e2-ae05-83e9571df1f4}, !- Day Schedule Name
  No,                                     !- Apply Sunday
  Yes,                                    !- Apply Monday
  Yes,                                    !- Apply Tuesday
  Yes,                                    !- Apply Wednesday
  Yes,                                    !- Apply Thursday
  Yes,                                    !- Apply Friday
  No,                                     !- Apply Saturday
  DateRange,                              !- Date Specification Type
  1,                                      !- Start Month
  1,                                      !- Start Day
  12,                                     !- End Month
  31;                                     !- End Day

OS:Schedule:Day,
  {df822895-62e5-40e2-ae05-83e9571df1f4}, !- Handle
  Schedule Day 5,                         !- Name
  {d773bc7b-0d0d-4e84-95cb-3b8224b65776}, !- Schedule Type Limits Name
  ,                                       !- Interpolate to Timestep
  5,                                      !- Hour 1
  0,                                      !- Minute 1
  15.6,                                   !- Value Until Time 1
  6,                                      !- Hour 2
  0,                                      !- Minute 2
  17.8,                                   !- Value Until Time 2
  7,                                      !- Hour 3
  0,                                      !- Minute 3
  20,                                     !- Value Until Time 3
  22,                                     !- Hour 4
  0,                                      !- Minute 4
  21,                                     !- Value Until Time 4
  24,                                     !- Hour 5
  0,                                      !- Minute 5
  15.6;                                   !- Value Until Time 5

OS:Schedule:Rule,
  {affe7c41-14ec-41f0-a7c7-711250125115}, !- Handle
  Schedule Rule 4,                        !- Name
  {536daf68-b75a-4093-b937-179b66a6d357}, !- Schedule Ruleset Name
  1,                                      !- Rule Order
  {cfd287bc-9b6d-47e9-b87a-cbe4d9e5e6ce}, !- Day Schedule Name
  No,                                     !- Apply Sunday
  No,                                     !- Apply Monday
  No,                                     !- Apply Tuesday
  No,                                     !- Apply Wednesday
  No,                                     !- Apply Thursday
  No,                                     !- Apply Friday
  Yes,                                    !- Apply Saturday
  DateRange,                              !- Date Specification Type
  1,                                      !- Start Month
  1,                                      !- Start Day
  12,                                     !- End Month
  31;                                     !- End Day

OS:Schedule:Day,
  {cfd287bc-9b6d-47e9-b87a-cbe4d9e5e6ce}, !- Handle
  Schedule Day 6,                         !- Name
  {d773bc7b-0d0d-4e84-95cb-3b8224b65776}, !- Schedule Type Limits Name
  ,                                       !- Interpolate to Timestep
  5,                                      !- Hour 1
  0,                                      !- Minute 1
  15.6,                                   !- Value Until Time 1
  6,                                      !- Hour 2
  0,                                      !- Minute 2
  17.8,                                   !- Value Until Time 2
  7,                                      !- Hour 3
  0,                                      !- Minute 3
  20,                                     !- Value Until Time 3
  17,                                     !- Hour 4
  0,                                      !- Minute 4
  21,                                     !- Value Until Time 4
  24,                                     !- Hour 5
  0,                                      !- Minute 5
  15.6;                                   !- Value Until Time 5

OS:Schedule:Ruleset,
  {3da53f5a-c0da-4d7c-9a07-22a2116c4b09}, !- Handle
  Generic Office Equipment,               !- Name
  {0f5d1338-eba8-4653-b85d-85d34cf55933}, !- Schedule Type Limits Name
  {63c1c754-7f55-425c-b360-09b7298f48d9}, !- Default Day Schedule Name
  {dedb5aba-ebf3-43bd-b15a-2ed7c27829bd}, !- Summer Design Day Schedule Name
  {63852475-6755-469f-ae1e-2cc9c8fafc58}, !- Winter Design Day Schedule Name
  {8a855d1f-588b-44a0-8156-d69bda0f94fd}; !- Holiday Schedule Name

OS:Schedule:Day,
  {63c1c754-7f55-425c-b360-09b7298f48d9}, !- Handle
  Schedule Day 7,                         !- Name
  {0f5d1338-eba8-4653-b85d-85d34cf55933}, !- Schedule Type Limits Name
  ,                                       !- Interpolate to Timestep