
OS:Version,
  {edac797e-96d6-4902-b157-8323fad9584e}, !- Handle
  3.0.1;                                  !- Version Identifier

OS:Building,
  {def0b608-c87e-4350-89d6-3059e0159ea4}, !- Handle
  Building 1,                             !- Name
  ,                                       !- Building Sector Type
  -0,                                     !- North Axis {deg}
  ,                                       !- Nominal Floor to Floor Height {m}
  ,                                       !- Space Type Name
  {9565d4e7-c427-4ffd-8a09-c5cc03377040}, !- Default Construction Set Name
  ,                                       !- Default Schedule Set Name
  ,                                       !- Standards Number of Stories
  ,                                       !- Standards Number of Above Ground Stories
  ,                                       !- Standards Template
  MediumOffice;                           !- Standards Building Type

OS:Facility,
  {7b73e397-f981-41e3-a430-82334810ba44}; !- Handle

OS:Site,
  {ddd86887-2ddb-4a90-806a-56b86b23f979}, !- Handle
  Site 1,                                 !- Name
  ,                                       !- Latitude {deg}
  ,                                       !- Longitude {deg}
  ,                                       !- Time Zone {hr}
  ,                                       !- Elevation {m}
  City;                                   !- Terrain

OS:SimulationControl,
  {a0dc02e7-e50a-4ff8-aae1-94541cdad9f5}, !- Handle
  Yes,                                    !- Do Zone Sizing Calculation
  Yes,                                    !- Do System Sizing Calculation
  Yes,                                    !- Do Plant Sizing Calculation
  No,                                     !- Run Simulation for Sizing Periods
  Yes,                                    !- Run Simulation for Weather File Run Periods
  ,                                       !- Loads Convergence Tolerance Value {W}
  ,                                       !- Temperature Convergence Tolerance Value {deltaC}
  FullExteriorWithReflections;            !- Solar Distribution

OS:Sizing:Parameters,
  {ac8b8ec3-5b06-4b59-8156-c03af7894b25}, !- Handle
  1.25,                                   !- Heating Sizing Factor
  1.15;                                   !- Cooling Sizing Factor

OS:Timestep,
  {02f71080-e777-4874-aac5-1cadc5678080}, !- Handle
  6;                                      !- Number of Timesteps per Hour

OS:ShadowCalculation,
  {b62bda9d-4343-4864-a48a-289b1964706a}, !- Handle
  PolygonClipping,                        !- Shading Calculation Method
  Periodic,                               !- Shading Calculation Update Frequency Method
  30,                                     !- Shading Calculation Update Frequency
  15000,                                  !- Maximum Figures in Shadow Overlap Calculations
  ,                                       !- Polygon Clipping Algorithm
  512,                                    !- Pixel Counting Resolution
  ,                                       !- Sky Diffuse Modeling Algorithm
  No,                                     !- Output External Shading Calculation Results
  No,                                     !- Disable Self-Shading Within Shading Zone Groups
  No;                                     !- Disable Self-Shading From Shading Zone Groups to Other Zones

OS:HeatBalanceAlgorithm,
  {68395b00-624b-42b8-b7e8-2d99f683ad94}, !- Handle
  ConductionTransferFunction,             !- Algorithm
  200;                                    !- Surface Temperature Upper Limit {C}

OS:RunPeriod,
  {660bdc81-554f-4584-86d6-016a99ebf282}, !- Handle
  Run Period 1,                           !- Name
  1,                                      !- Begin Month
  1,                                      !- Begin Day of Month
  1,                                      !- End Month
  31,                                     !- End Day of Month
  ,                                       !- Use Weather File Holidays and Special Days
  ,                                       !- Use Weather File Daylight Saving Period
  ,                                       !- Apply Weekend Holiday Rule
  ,                                       !- Use Weather File Rain Indicators
  ,                                       !- Use Weather File Snow Indicators
  ;                                       !- Number of Times Runperiod to be Repeated

OS:LifeCycleCost:Parameters,
  {32f69b86-b9e8-442a-a767-18bd2f9c073d}, !- Handle
  ,                                       !- Analysis Type
  ,                                       !- Discounting Convention
  ,                                       !- Inflation Approach
  ,                                       !- Real Discount Rate
  ,                                       !- Nominal Discount Rate
  ,                                       !- Inflation
  ,                                       !- Base Date Month
  ,                                       !- Base Date Year
  ,                                       !- Service Date Month
  ,                                       !- Service Date Year
  ;                                       !- Length of Study Period in Years

OS:WeatherFile,
  {3b726070-c1e0-4707-8c20-a2ee937a1d94}, !- Handle
  Boston Logan IntL Arpt,                 !- City
  MA,                                     !- State Province Region
  USA,                                    !- Country
  TMY3,                                   !- Data Source
  725090,                                 !- WMO Number
  42.37,                                  !- Latitude {deg}
  -71.02,                                 !- Longitude {deg}
  -5,                                     !- Time Zone {hr}
  6,                                      !- Elevation {m}
  C:/Users/Administrator/ladybug_tools/resources/weather/USA_MA_Boston-Logan.Intl.AP.725090_TMY3/USA_MA_Boston-Logan.Intl.AP.725090_TMY3.epw, !- Url
  B65824C3;                               !- Checksum

OS:ScheduleTypeLimits,
  {584c9f6a-d338-417a-b180-4d494ac37315}, !- Handle
  Temperature,                            !- Name
  -273.15,                                !- Lower Limit Value
  ,                                       !- Upper Limit Value
  Continuous,                             !- Numeric Type
  Temperature;                            !- Unit Type

OS:ScheduleTypeLimits,
  {e3d7823a-5682-4ccc-86c3-538537d52d23}, !- Handle
  Activity Level,                         !- Name
  0,                                      !- Lower Limit Value
  ,                                       !- Upper Limit Value
  Continuous,                             !- Numeric Type
  ActivityLevel;                          !- Unit Type

OS:ScheduleTypeLimits,
  {0adf1e26-cc94-4f9a-96d0-d78b95ff6cc5}, !- Handle
  Fractional,                             !- Name
  0,                                      !- Lower Limit Value
  1,                                      !- Upper Limit Value
  Continuous,                             !- Numeric Type
  Dimensionless;                          !- Unit Type

OS:Schedule:Ruleset,
  {5cb96351-5582-4725-b60e-d41ddcddbd2a}, !- Handle
  Generic Office Infiltration,            !- Name
  {0adf1e26-cc94-4f9a-96d0-d78b95ff6cc5}, !- Schedule Type Limits Name
  {f98a1cdf-6486-4dff-a888-e11ce18fbc00}, !- Default Day Schedule Name
  {5748c802-54b8-4ebb-99df-48a1af30fceb}, !- Summer Design Day Schedule Name
  {68baa46f-2148-40ef-b834-3c46d45add09}, !- Winter Design Day Schedule Name
  {7b4da08a-e9b0-43db-b37b-ced205f3fbc1}; !- Holiday Schedule Name

OS:Schedule:Day,
  {f98a1cdf-6486-4dff-a888-e11ce18fbc00}, !- Handle
  Schedule Day 1,                         !- Name
  {0adf1e26-cc94-4f9a-96d0-d78b95ff6cc5}, !- Schedule Type Limits Name
  ,                                       !- Interpolate to Timestep
  24,                                     !- Hour 1
  0,                                      !- Minute 1
  1;                                      !- Value Until Time 1

OS:Schedule:Day,
  {a3cc0137-8286-4ee4-8658-dae23a2c3f29}, !- Handle
  OfficeMedium INFIL_SCH_PNNL_Default,    !- Name
  {0adf1e26-cc94-4f9a-96d0-d78b95ff6cc5}, !- Schedule Type Limits Name
  ,                                       !- Interpolate to Timestep
  24,                                     !- Hour 1
  0,                                      !- Minute 1
  1;                                      !- Value Until Time 1

OS:Schedule:Day,
  {388294fb-817f-445f-99f0-ab05eac889c2}, !- Handle
  OfficeMedium INFIL_SCH_PNNL_Wkdy_SmrDsn, !- Name
  {0adf1e26-cc94-4f9a-96d0-d78b95ff6cc5}, !- Schedule Type Limits Name
  ,                                       !- Interpolate to Timestep
  6,                                      !- Hour 1
  0,                                      !- Minute 1
  1,                                      !- Value Until Time 1
  22,                                     !- Hour 2
  0,                                      !- Minute 2
  0.25,                                   !- Value Until Time 2
  24,                                     !- Hour 3
  0,                                      !- Minute 3
  1;                                      !- Value Until Time 3

OS:Schedule:Day,
  {43c731a2-ce17-4308-8165-2c293adaabe1}, !- Handle
  OfficeMedium INFIL_SCH_PNNL_Sat_WntrDsn, !- Name
  {0adf1e26-cc94-4f9a-96d0-d78b95ff6cc5}, !- Schedule Type Limits Name
  ,                                       !- Interpolate to Timestep
  6,                                      !- Hour 1
  0,                                      !- Minute 1
  1,                                      !- Value Until Time 1
  18,                                     !- Hour 2
  0,                                      !- Minute 2
  0.25,                                   !- Value Until Time 2
  24,                                     !- Hour 3
  0,                                      !- Minute 3
  1;                                      !- Value Until Time 3

OS:Schedule:Day,
  {6fa14676-e3f4-41e7-ab0d-f5996a6b6b39}, !- Handle
  OfficeMedium INFIL_SCH_PNNL_Wkdy,       !- Name
  {0adf1e26-cc94-4f9a-96d0-d78b95ff6cc5}, !- Schedule Type Limits Name
  ,                                       !- Interpolate to Timestep
  6,                                      !- Hour 1
  0,                                      !- Minute 1
  1,                                      !- Value Until Time 1
  22,                                     !- Hour 2
  0,                                      !- Minute 2
  0.25,                                   !- Value Until Time 2
  24,                                     !- Hour 3
  0,                                      !- Minute 3
  1;                                      !- Value Until Time 3

OS:Schedule:Day,
  {94cb7c42-2bc3-41d9-9a23-8368adceb075}, !- Handle
  OfficeMedium INFIL_SCH_PNNL_Sat,        !- Name
  {0adf1e26-cc94-4f9a-96d0-d78b95ff6cc5}, !- Schedule Type Limits Name
  ,                                       !- Interpolate to Timestep
  6,                                      !- Hour 1
  0,                                      !- Minute 1
  1,                                      !- Value Until Time 1
  18,                                     !- Hour 2
  0,                                      !- Minute 2
  0.25,                                   !- Value Until Time 2
  24,                                     !- Hour 3
  0,                                      !- Minute 3
  1;                                      !- Value Until Time 3

OS:Schedule:Day,
  {7b4da08a-e9b0-43db-b37b-ced205f3fbc1}, !- Handle
  OfficeMedium INFIL_SCH_PNNL_Default 1,  !- Name
  {0adf1e26-cc94-4f9a-96d0-d78b95ff6cc5}, !- Schedule Type Limits Name
  ,                                       !- Interpolate to Timestep
  24,                                     !- Hour 1
  0,                                      !- Minute 1
  1;                                      !- Value Until Time 1

OS:Schedule:Day,
  {5748c802-54b8-4ebb-99df-48a1af30fceb}, !- Handle
  OfficeMedium INFIL_SCH_PNNL_Wkdy_SmrDsn 1, !- Name
  {0adf1e26-cc94-4f9a-96d0-d78b95ff6cc5}, !- Schedule Type Limits Name
  ,                                       !- Interpolate to Timestep
  6,                                      !- Hour 1
  0,                                      !- Minute 1
  1,                                      !- Value Until Time 1
  22,                                     !- Hour 2
  0,                                      !- Minute 2
  0.25,                                   !- Value Until Time 2
  24,                                     !- Hour 3
  0,                                      !- Minute 3
  1;                                      !- Value Until Time 3

OS:Schedule:Day,
  {68baa46f-2148-40ef-b834-3c46d45add09}, !- Handle
  OfficeMedium INFIL_SCH_PNNL_Sat_WntrDsn 1, !- Name
  {0adf1e26-cc94-4f9a-96d0-d78b95ff6cc5}, !- Schedule Type Limits Name
  ,                                       !- Interpolate to Timestep
  6,                                      !- Hour 1
  0,                                      !- Minute 1
  1,                                      !- Value Until Time 1
  18,                                     !- Hour 2
  0,                                      !- Minute 2
  0.25,                                   !- Value Until Time 2
  24,                                     !- Hour 3
  0,                                      !- Minute 3
  1;                                      !- Value Until Time 3

OS:Schedule:Rule,
  {e7c64801-4f0e-43a2-982f-fd6b585ce0eb}, !- Handle
  Schedule Rule 1,                        !- Name
  {5cb96351-5582-4725-b60e-d41ddcddbd2a}, !- Schedule Ruleset Name
  0,                                      !- Rule Order
  {4749bd3b-d587-4d19-ba5b-38a8a19eb724}, !- Day Schedule Name
  No,                                     !- Apply Sunday
  Yes,                                    !- Apply Monday
  Yes,                                    !- Apply Tuesday
  Yes,                                    !- Apply Wednesday
  Yes,                                    !- Apply Thursday
  Yes,                                    !- Apply Friday
  No,                                     !- Apply Saturday
  DateRange,                              !- Date Specification Type
  1,                                      !- Start Month
  1,                                      !- Start Day
  12,                                     !- End Month
  31;                                     !- End Day

OS:Schedule:Day,
  {4749bd3b-d587-4d19-ba5b-38a8a19eb724}, !- Handle
  Schedule Day 2,                         !- Name
  {0adf1e26-cc94-4f9a-96d0-d78b95ff6cc5}, !- Schedule Type Limits Name
  ,                                       !- Interpolate to Timestep
  6,                                      !- Hour 1
  0,                                      !- Minute 1
  1,                                      !- Value Until Time 1
  22,                                     !- Hour 2
  0,                                      !- Minute 2
  0.25,                                   !- Value Until Time 2
  24,                                     !- Hour 3
  0,                                      !- Minute 3
  1;                                      !- Value Until Time 3

OS:YearDescription,
  {81d64ec8-ce98-4b88-ab2a-d3ce266e997a}, !- Handle
  ,                                       !- Calendar Year
  Sunday;                                 !- Day of Week for Start Day

OS:Schedule:Rule,
  {e20a03b6-3925-46af-bd64-2423e7f1f4a5}, !- Handle
  Schedule Rule 2,                        !- Name
  {5cb96351-5582-4725-b60e-d41ddcddbd2a}, !- Schedule Ruleset Name
  1,                                      !- Rule Order
  {41e0fda1-787c-40b7-897e-16d3afc6504c}, !- Day Schedule Name
  No,                                     !- Apply Sunday
  No,                                     !- Apply Monday
  No,                                     !- Apply Tuesday
  No,                                     !- Apply Wednesday
  No,                                     !- Apply Thursday
  No,                                     !- Apply Friday
  Yes,                                    !- Apply Saturday
  DateRange,                              !- Date Specification Type
  1,                                      !- Start Month
  1,                                      !- Start Day
  12,                                     !- End Month
  31;                                     !- End Day

OS:Schedule:Day,
  {41e0fda1-787c-40b7-897e-16d3afc6504c}, !- Handle
  Schedule Day 3,                         !- Name
  {0adf1e26-cc94-4f9a-96d0-d78b95ff6cc5}, !- Schedule Type Limits Name
  ,                                       !- Interpolate to Timestep
  6,                                      !- Hour 1
  0,                                      !- Minute 1
  1,                                      !- Value Until Time 1
  18,                                     !- Hour 2
  0,                                      !- Minute 2
  0.25,                                   !- Value Until Time 2
  24,                                     !- Hour 3
  0,                                      !- Minute 3
  1;                                      !- Value Until Time 3

OS:Schedule:Ruleset,
  {a80ce8f0-2bdd-4f24-ba73-89e2ccd29c4b}, !- Handle
  Generic Office Heating,                 !- Name
  {584c9f6a-d338-417a-b180-4d494ac37315}, !- Schedule Type Limits Name
  {26ef159d-6e42-460f-b507-9634d93c0a54}, !- Default Day Schedule Name
  {3e9a7fec-f6ff-4cc5-9301-9126818a595b}, !- Summer Design Day Schedule Name
  {b0648fa9-8fd8-4747-ba93-562b537423dc}, !- Winter Design Day Schedule Name
  {b87f1b9a-182a-4616-b8fd-96eaaa610077}; !- Holiday Schedule Name

OS:Schedule:Day,
  {26ef159d-6e42-460f-b507-9634d93c0a54}, !- Handle
  Schedule Day 4,                         !- Name
  {584c9f6a-d338-417a-b180-4d494ac37315}, !- Schedule Type Limits Name
  ,                                       !- Interpolate to Timestep
  24,                                     !- Hour 1
  0,                                      !- Minute 1
  15.6;                                   !- Value Until Time 1

OS:Schedule:Day,
  {9ccf1f57-47bf-4c56-8819-47af5cc644e9}, !- Handle
  OfficeMedium HTGSETP_SCH_YES_OPTIMUM_Default, !- Name
  {584c9f6a-d338-417a-b180-4d494ac37315}, !- Schedule Type Limits Name
  ,                                       !- Interpolate to Timestep
  24,                                     !- Hour 1
  0,                                      !- Minute 1
  15.6;                                   !- Value Until Time 1

OS:Schedule:Day,
  {c590a81d-75a2-4b54-83dc-9052b77fdde4}, !- Handle
  OfficeMedium HTGSETP_SCH_YES_OPTIMUM_Default_SmrDsn, !- Name
  {584c9f6a-d338-417a-b180-4d494ac37315}, !- Schedule Type Limits Name
  ,                                       !- Interpolate to Timestep
  24,                                     !- Hour 1
  0,                                      !- Minute 1
  15.6;                                   !- Value Until Time 1

OS:Schedule:Day,
  {35c088ba-b3ec-46ae-b43c-73bccda2816a}, !- Handle
  OfficeMedium HTGSETP_SCH_YES_OPTIMUM_WntrDsn, !- Name
  {584c9f6a-d338-417a-b180-4d494ac37315}, !- Schedule Type Limits Name
  ,                                       !- Interpolate to Timestep
  5,                                      !- Hour 1
  0,                                      !- Minute 1
  15.6,                                   !- Value Until Time 1
  6,                                      !- Hour 2
  0,                                      !- Minute 2
  17.6,                                   !- Value Until Time 2
  7,                                      !- Hour 3
  0,                                      !- Minute 3
  19.6,                                   !- Value Until Time 3
  22,                                     !- Hour 4
  0,                                      !- Minute 4
  21,                                     !- Value Until Time 4
  24,                                     !- Hour 5
  0,                                      !- Minute 5
  15.6;                                   !- Value Until Time 5

OS:Schedule:Day,
  {3d3d9a73-0fb8-456e-b6e2-c80e59d41c14}, !- Handle
  OfficeMedium HTGSETP_SCH_YES_OPTIMUM_Wkdy, !- Name
  {584c9f6a-d338-417a-b180-4d494ac37315}, !- Schedule Type Limits Name
  ,                                       !- Interpolate to Timestep
  5,                                      !- Hour 1
  0,                                      !- Minute 1
  15.6,                                   !- Value Until Time 1
  6,                                      !- Hour 2
  0,                                      !- Minute 2
  17.8,                                   !- Value Until Time 2
  7,                                      !- Hour 3
  0,                                      !- Minute 3
  20,                                     !- Value Until Time 3
  22,                                     !- Hour 4
  0,                                      !- Minute 4
  21,                                     !- Value Until Time 4
  24,                                     !- Hour 5
  0,                                      !- Minute 5
  15.6;                                   !- Value Until Time 5

OS:Schedule:Day,
  {a7136246-7644-40ee-b266-e31d32746ed4}, !- Handle
  OfficeMedium HTGSETP_SCH_YES_OPTIMUM_Sat, !- Name
  {584c9f6a-d338-417a-b180-4d494ac37315}, !- Schedule Type Limits Name
  ,                                       !- Interpolate to Timestep
  5,                                      !- Hour 1
  0,                                      !- Minute 1
  15.6,                                   !- Value Until Time 1
  6,                                      !- Hour 2
  0,                                      !- Minute 2
  17.8,                                   !- Value Until Time 2
  7,                                      !- Hour 3
  0,                                      !- Minute 3
  20,                                     !- Value Until Time 3
  17,                                     !- Hour 4
  0,                                      !- Minute 4
  21,                                     !- Value Until Time 4
  24,                                     !- Hour 5
  0,                                      !- Minute 5
  15.6;                                   !- Value Until Time 5

OS:Schedule:Day,
  {b87f1b9a-182a-4616-b8fd-96eaaa610077}, !- Handle
  OfficeMedium HTGSETP_SCH_YES_OPTIMUM_Default 1, !- Name
  {584c9f6a-d338-417a-b180-4d494ac37315}, !- Schedule Type Limits Name
  ,                                       !- Interpolate to Timestep
  24,                                     !- Hour 1
  0,                                      !- Minute 1
  15.6;                                   !- Value Until Time 1

OS:Schedule:Day,
  {3e9a7fec-f6ff-4cc5-9301-9126818a595b}, !- Handle
  OfficeMedium HTGSETP_SCH_YES_OPTIMUM_Default_SmrDsn 1, !- Name
  {584c9f6a-d338-417a-b180-4d494ac37315}, !- Schedule Type Limits Name
  ,                                       !- Interpolate to Timestep
  24,                                     !- Hour 1
  0,                                      !- Minute 1
  15.6;                                   !- Value Until Time 1

OS:Schedule:Day,
  {b0648fa9-8fd8-4747-ba93-562b537423dc}, !- Handle
  OfficeMedium HTGSETP_SCH_YES_OPTIMUM_WntrDsn 1, !- Name
  {584c9f6a-d338-417a-b180-4d494ac37315}, !- Schedule Type Limits Name
  ,                                       !- Interpolate to Timestep
  5,                                      !- Hour 1
  0,                                      !- Minute 1
  15.6,                                   !- Value Until Time 1
  6,                                      !- Hour 2
  0,                                      !- Minute 2
  17.6,                                   !- Value Until Time 2
  7,                                      !- Hour 3
  0,                                      !- Minute 3
  19.6,                                   !- Value Until Time 3
  22,                                     !- Hour 4
  0,                                      !- Minute 4
  21,                                     !- Value Until Time 4
  24,                                     !- Hour 5
  0,                                      !- Minute 5
  15.6;                                   !- Value Until Time 5

OS:Schedule:Rule,
  {4bd3f939-ce54-4984-96e2-6f4660ebd7a5}, !- Handle
  Schedule Rule 3,                        !- Name
  {a80ce8f0-2bdd-4f24-ba73-89e2ccd29c4b}, !- Schedule Ruleset Name
  0,                                      !- Rule Order
  {3f160370-2e35-48c9-ade7-945e74ed6d11}, !- Day Schedule Name
  No,                                     !- Apply Sunday
  Yes,                                    !- Apply Monday
  Yes,                                    !- Apply Tuesday
  Yes,                                    !- Apply Wednesday
  Yes,                                    !- Apply Thursday
  Yes,                                    !- Apply Friday
  No,                                     !- Apply Saturday
  DateRange,                              !- Date Specification Type
  1,                                      !- Start Month
  1,                                      !- Start Day
  12,                                     !- End Month
  31;                                     !- End Day

OS:Schedule:Day,
  {3f160370-2e35-48c9-ade7-945e74ed6d11}, !- Handle
  Schedule Day 5,                         !- Name
  {584c9f6a-d338-417a-b180-4d494ac37315}, !- Schedule Type Limits Name
  ,                                       !- Interpolate to Timestep
  5,                                      !- Hour 1
  0,                                      !- Minute 1
  15.6,                                   !- Value Until Time 1
  6,                                      !- Hour 2
  0,                                      !- Minute 2
  17.8,                                   !- Value Until Time 2
  7,                                      !- Hour 3
  0,                                      !- Minute 3
  20,                                     !- Value Until Time 3
  22,                                     !- Hour 4
  0,                                      !- Minute 4
  21,                                     !- Value Until Time 4
  24,                                     !- Hour 5
  0,                                      !- Minute 5
  15.6;                                   !- Value Until Time 5

OS:Schedule:Rule,
  {0a5c2d04-bdb8-4164-b96c-d68f070b118b}, !- Handle
  Schedule Rule 4,                        !- Name
  {a80ce8f0-2bdd-4f24-ba73-89e2ccd29c4b}, !- Schedule Ruleset Name
  1,                                      !- Rule Order
  {2550efca-aa8b-44ff-a0c8-431168e5390e}, !- Day Schedule Name
  No,                                     !- Apply Sunday
  No,                                     !- Apply Monday
  No,                                     !- Apply Tuesday
  No,                                     !- Apply Wednesday
  No,                                     !- Apply Thursday
  No,                                     !- Apply Friday
  Yes,                                    !- Apply Saturday
  DateRange,                              !- Date Specification Type
  1,                                      !- Start Month
  1,                                      !- Start Day
  12,                                     !- End Month
  31;                                     !- End Day

OS:Schedule:Day,
  {2550efca-aa8b-44ff-a0c8-431168e5390e}, !- Handle
  Schedule Day 6,                         !- Name
  {584c9f6a-d338-417a-b180-4d494ac37315}, !- Schedule Type Limits Name
  ,                                       !- Interpolate to Timestep
  5,                                      !- Hour 1
  0,                                      !- Minute 1
  15.6,                                   !- Value Until Time 1
  6,                                      !- Hour 2
  0,                                      !- Minute 2
  17.8,                                   !- Value Until Time 2
  7,                                      !- Hour 3
  0,                                      !- Minute 3
  20,                                     !- Value Until Time 3
  17,                                     !- Hour 4
  0,                                      !- Minute 4
  21,                                     !- Value Until Time 4
  24,                                     !- Hour 5
  0,                                      !- Minute 5
  15.6;                                   !- Value Until Time 5

OS:Schedule:Ruleset,
  {aa4ab158-792c-4461-80e8-1e3a078e401b}, !- Handle
  Generic Office Equipment,               !- Name
  {0adf1e26-cc94-4f9a-96d0-d78b95ff6cc5}, !- Schedule Type Limits Name
  {2f450aae-8341-4f8e-821b-10542c5ae28f}, !- Default Day Schedule Name
  {7d1312c6-ef6b-4cf4-856e-af21e6158188}, !- Summer Design Day Schedule Name
  {489d77cb-b05d-47dc-9480-18859f6d0f3c}, !- Winter Design Day Schedule Name
  {718790bb-12b0-44d1-9ee0-f35eb6054791}; !- Holiday Schedule Name

OS:Schedule:Day,
  {2f450aae-8341-4f8e-821b-10542c5ae28f}, !- Handle
  Schedule Day 7,                         !- Name
  {0adf1e26-cc94-4f9a-96d0-d78b95ff6cc5}, !- Schedule Type Limits Name
  ,                                       !- Interpolate to Timestep