
OS:Version,
  {68687236-c020-4cb3-a4ae-33d2abeb5a81}, !- Handle
  3.0.1;                                  !- Version Identifier

OS:Building,
  {11a791b5-c2eb-431c-a701-caa776298a11}, !- Handle
  Building 1,                             !- Name
  ,                                       !- Building Sector Type
  -0,                                     !- North Axis {deg}
  ,                                       !- Nominal Floor to Floor Height {m}
  ,                                       !- Space Type Name
  {4a5dd7a8-ad8e-4216-a8bc-61754d514552}, !- Default Construction Set Name
  ,                                       !- Default Schedule Set Name
  ,                                       !- Standards Number of Stories
  ,                                       !- Standards Number of Above Ground Stories
  ,                                       !- Standards Template
  MediumOffice;                           !- Standards Building Type

OS:Facility,
  {71316497-c6b4-4339-ba89-980a5a7416b2}; !- Handle

OS:Site,
  {508bcc70-65a1-4966-b190-d751890a0e04}, !- Handle
  Site 1,                                 !- Name
  ,                                       !- Latitude {deg}
  ,                                       !- Longitude {deg}
  ,                                       !- Time Zone {hr}
  ,                                       !- Elevation {m}
  City;                                   !- Terrain

OS:SimulationControl,
  {9b3c0590-a81e-40bd-8abd-c1e9cb42e906}, !- Handle
  Yes,                                    !- Do Zone Sizing Calculation
  Yes,                                    !- Do System Sizing Calculation
  Yes,                                    !- Do Plant Sizing Calculation
  No,                                     !- Run Simulation for Sizing Periods
  Yes,                                    !- Run Simulation for Weather File Run Periods
  ,                                       !- Loads Convergence Tolerance Value {W}
  ,                                       !- Temperature Convergence Tolerance Value {deltaC}
  FullExteriorWithReflections;            !- Solar Distribution

OS:Sizing:Parameters,
  {15307dbb-f9d0-4976-bf70-b5851a6f2e67}, !- Handle
  1.25,                                   !- Heating Sizing Factor
  1.15;                                   !- Cooling Sizing Factor

OS:Timestep,
  {935d9a56-b1c8-4719-b73e-7573a8d9a6a0}, !- Handle
  6;                                      !- Number of Timesteps per Hour

OS:ShadowCalculation,
  {b018d0ca-019b-4433-b9ee-d1e6adce52d6}, !- Handle
  PolygonClipping,                        !- Shading Calculation Method
  Periodic,                               !- Shading Calculation Update Frequency Method
  30,                                     !- Shading Calculation Update Frequency
  15000,                                  !- Maximum Figures in Shadow Overlap Calculations
  ,                                       !- Polygon Clipping Algorithm
  512,                                    !- Pixel Counting Resolution
  ,                                       !- Sky Diffuse Modeling Algorithm
  No,                                     !- Output External Shading Calculation Results
  No,                                     !- Disable Self-Shading Within Shading Zone Groups
  No;                                     !- Disable Self-Shading From Shading Zone Groups to Other Zones

OS:HeatBalanceAlgorithm,
  {7b2b8aa5-68b1-4af0-9f10-489e67860cf3}, !- Handle
  ConductionTransferFunction,             !- Algorithm
  200;                                    !- Surface Temperature Upper Limit {C}

OS:RunPeriod,
  {f3b26c12-d74c-4ae8-afc5-65d43cd61d6d}, !- Handle
  Run Period 1,                           !- Name
  1,                                      !- Begin Month
  1,                                      !- Begin Day of Month
  1,                                      !- End Month
  31,                                     !- End Day of Month
  ,                                       !- Use Weather File Holidays and Special Days
  ,                                       !- Use Weather File Daylight Saving Period
  ,                                       !- Apply Weekend Holiday Rule
  ,                                       !- Use Weather File Rain Indicators
  ,                                       !- Use Weather File Snow Indicators
  ;                                       !- Number of Times Runperiod to be Repeated

OS:LifeCycleCost:Parameters,
  {871b916a-95ca-4ba0-bbfc-ceec718a48fe}, !- Handle
  ,                                       !- Analysis Type
  ,                                       !- Discounting Convention
  ,                                       !- Inflation Approach
  ,                                       !- Real Discount Rate
  ,                                       !- Nominal Discount Rate
  ,                                       !- Inflation
  ,                                       !- Base Date Month
  ,                                       !- Base Date Year
  ,                                       !- Service Date Month
  ,                                       !- Service Date Year
  ;                                       !- Length of Study Period in Years

OS:WeatherFile,
  {0a3ec69d-ac90-468d-a47e-138311cc0c80}, !- Handle
  Boston Logan IntL Arpt,                 !- City
  MA,                                     !- State Province Region
  USA,                                    !- Country
  TMY3,                                   !- Data Source
  725090,                                 !- WMO Number
  42.37,                                  !- Latitude {deg}
  -71.02,                                 !- Longitude {deg}
  -5,                                     !- Time Zone {hr}
  6,                                      !- Elevation {m}
  C:/Users/Administrator/ladybug_tools/resources/weather/USA_MA_Boston-Logan.Intl.AP.725090_TMY3/USA_MA_Boston-Logan.Intl.AP.725090_TMY3.epw, !- Url
  B65824C3;                               !- Checksum

OS:ScheduleTypeLimits,
  {14a9fc31-7085-4e49-b070-26f7394b7f1b}, !- Handle
  Temperature,                            !- Name
  -273.15,                                !- Lower Limit Value
  ,                                       !- Upper Limit Value
  Continuous,                             !- Numeric Type
  Temperature;                            !- Unit Type

OS:ScheduleTypeLimits,
  {c7789ab3-ec2a-4e2f-9a5d-bdbbf6309180}, !- Handle
  Activity Level,                         !- Name
  0,                                      !- Lower Limit Value
  ,                                       !- Upper Limit Value
  Continuous,                             !- Numeric Type
  ActivityLevel;                          !- Unit Type

OS:ScheduleTypeLimits,
  {b3f51ee6-1e59-4c34-a2d8-08236a74619d}, !- Handle
  Fractional,                             !- Name
  0,                                      !- Lower Limit Value
  1,                                      !- Upper Limit Value
  Continuous,                             !- Numeric Type
  Dimensionless;                          !- Unit Type

OS:Schedule:Ruleset,
  {534c939d-5d6d-44a2-897f-d4f1b15f8ba5}, !- Handle
  Generic Office Infiltration,            !- Name
  {b3f51ee6-1e59-4c34-a2d8-08236a74619d}, !- Schedule Type Limits Name
  {ced0e6cc-0556-4dd9-be2d-d64472a01001}, !- Default Day Schedule Name
  {522c9454-ce42-44dc-be5f-3146e2eb6b83}, !- Summer Design Day Schedule Name
  {06e92d52-db78-4922-b98a-597420dc5bc5}, !- Winter Design Day Schedule Name
  {f98089e3-1d35-4f63-840e-487cb81f795c}; !- Holiday Schedule Name

OS:Schedule:Day,
  {ced0e6cc-0556-4dd9-be2d-d64472a01001}, !- Handle
  Schedule Day 1,                         !- Name
  {b3f51ee6-1e59-4c34-a2d8-08236a74619d}, !- Schedule Type Limits Name
  ,                                       !- Interpolate to Timestep
  24,                                     !- Hour 1
  0,                                      !- Minute 1
  1;                                      !- Value Until Time 1

OS:Schedule:Day,
  {6b57ee1b-7706-446a-bddb-83a4f04da7f5}, !- Handle
  OfficeMedium INFIL_SCH_PNNL_Default,    !- Name
  {b3f51ee6-1e59-4c34-a2d8-08236a74619d}, !- Schedule Type Limits Name
  ,                                       !- Interpolate to Timestep
  24,                                     !- Hour 1
  0,                                      !- Minute 1
  1;                                      !- Value Until Time 1

OS:Schedule:Day,
  {0c498ad3-b805-4fd0-ac75-7beed87a5dc0}, !- Handle
  OfficeMedium INFIL_SCH_PNNL_Wkdy_SmrDsn, !- Name
  {b3f51ee6-1e59-4c34-a2d8-08236a74619d}, !- Schedule Type Limits Name
  ,                                       !- Interpolate to Timestep
  6,                                      !- Hour 1
  0,                                      !- Minute 1
  1,                                      !- Value Until Time 1
  22,                                     !- Hour 2
  0,                                      !- Minute 2
  0.25,                                   !- Value Until Time 2
  24,                                     !- Hour 3
  0,                                      !- Minute 3
  1;                                      !- Value Until Time 3

OS:Schedule:Day,
  {9c1488cb-d7b6-4f90-8fe3-05bce6a77ab7}, !- Handle
  OfficeMedium INFIL_SCH_PNNL_Sat_WntrDsn, !- Name
  {b3f51ee6-1e59-4c34-a2d8-08236a74619d}, !- Schedule Type Limits Name
  ,                                       !- Interpolate to Timestep
  6,                                      !- Hour 1
  0,                                      !- Minute 1
  1,                                      !- Value Until Time 1
  18,                                     !- Hour 2
  0,                                      !- Minute 2
  0.25,                                   !- Value Until Time 2
  24,                                     !- Hour 3
  0,                                      !- Minute 3
  1;                                      !- Value Until Time 3

OS:Schedule:Day,
  {fdeec4e4-60cf-4d95-8301-327a831a6235}, !- Handle
  OfficeMedium INFIL_SCH_PNNL_Wkdy,       !- Name
  {b3f51ee6-1e59-4c34-a2d8-08236a74619d}, !- Schedule Type Limits Name
  ,                                       !- Interpolate to Timestep
  6,                                      !- Hour 1
  0,                                      !- Minute 1
  1,                                      !- Value Until Time 1
  22,                                     !- Hour 2
  0,                                      !- Minute 2
  0.25,                                   !- Value Until Time 2
  24,                                     !- Hour 3
  0,                                      !- Minute 3
  1;                                      !- Value Until Time 3

OS:Schedule:Day,
  {9d7623fe-9431-484b-b62c-29ff97c12b6e}, !- Handle
  OfficeMedium INFIL_SCH_PNNL_Sat,        !- Name
  {b3f51ee6-1e59-4c34-a2d8-08236a74619d}, !- Schedule Type Limits Name
  ,                                       !- Interpolate to Timestep
  6,                                      !- Hour 1
  0,                                      !- Minute 1
  1,                                      !- Value Until Time 1
  18,                                     !- Hour 2
  0,                                      !- Minute 2
  0.25,                                   !- Value Until Time 2
  24,                                     !- Hour 3
  0,                                      !- Minute 3
  1;                                      !- Value Until Time 3

OS:Schedule:Day,
  {f98089e3-1d35-4f63-840e-487cb81f795c}, !- Handle
  OfficeMedium INFIL_SCH_PNNL_Default 1,  !- Name
  {b3f51ee6-1e59-4c34-a2d8-08236a74619d}, !- Schedule Type Limits Name
  ,                                       !- Interpolate to Timestep
  24,                                     !- Hour 1
  0,                                      !- Minute 1
  1;                                      !- Value Until Time 1

OS:Schedule:Day,
  {522c9454-ce42-44dc-be5f-3146e2eb6b83}, !- Handle
  OfficeMedium INFIL_SCH_PNNL_Wkdy_SmrDsn 1, !- Name
  {b3f51ee6-1e59-4c34-a2d8-08236a74619d}, !- Schedule Type Limits Name
  ,                                       !- Interpolate to Timestep
  6,                                      !- Hour 1
  0,                                      !- Minute 1
  1,                                      !- Value Until Time 1
  22,                                     !- Hour 2
  0,                                      !- Minute 2
  0.25,                                   !- Value Until Time 2
  24,                                     !- Hour 3
  0,                                      !- Minute 3
  1;                                      !- Value Until Time 3

OS:Schedule:Day,
  {06e92d52-db78-4922-b98a-597420dc5bc5}, !- Handle
  OfficeMedium INFIL_SCH_PNNL_Sat_WntrDsn 1, !- Name
  {b3f51ee6-1e59-4c34-a2d8-08236a74619d}, !- Schedule Type Limits Name
  ,                                       !- Interpolate to Timestep
  6,                                      !- Hour 1
  0,                                      !- Minute 1
  1,                                      !- Value Until Time 1
  18,                                     !- Hour 2
  0,                                      !- Minute 2
  0.25,                                   !- Value Until Time 2
  24,                                     !- Hour 3
  0,                                      !- Minute 3
  1;                                      !- Value Until Time 3

OS:Schedule:Rule,
  {9900808a-1d2a-4003-8179-7134df64e340}, !- Handle
  Schedule Rule 1,                        !- Name
  {534c939d-5d6d-44a2-897f-d4f1b15f8ba5}, !- Schedule Ruleset Name
  0,                                      !- Rule Order
  {051ba716-53a0-4a91-a5a3-1dc26fe06513}, !- Day Schedule Name
  No,                                     !- Apply Sunday
  Yes,                                    !- Apply Monday
  Yes,                                    !- Apply Tuesday
  Yes,                                    !- Apply Wednesday
  Yes,                                    !- Apply Thursday
  Yes,                                    !- Apply Friday
  No,                                     !- Apply Saturday
  DateRange,                              !- Date Specification Type
  1,                                      !- Start Month
  1,                                      !- Start Day
  12,                                     !- End Month
  31;                                     !- End Day

OS:Schedule:Day,
  {051ba716-53a0-4a91-a5a3-1dc26fe06513}, !- Handle
  Schedule Day 2,                         !- Name
  {b3f51ee6-1e59-4c34-a2d8-08236a74619d}, !- Schedule Type Limits Name
  ,                                       !- Interpolate to Timestep
  6,                                      !- Hour 1
  0,                                      !- Minute 1
  1,                                      !- Value Until Time 1
  22,                                     !- Hour 2
  0,                                      !- Minute 2
  0.25,                                   !- Value Until Time 2
  24,                                     !- Hour 3
  0,                                      !- Minute 3
  1;                                      !- Value Until Time 3

OS:YearDescription,
  {84497b1a-448b-4c45-9885-e619248bcb8c}, !- Handle
  ,                                       !- Calendar Year
  Sunday;                                 !- Day of Week for Start Day

OS:Schedule:Rule,
  {1af94e7c-faf6-40a8-9fa4-23969c824a51}, !- Handle
  Schedule Rule 2,                        !- Name
  {534c939d-5d6d-44a2-897f-d4f1b15f8ba5}, !- Schedule Ruleset Name
  1,                                      !- Rule Order
  {b60e41d4-01ad-4e51-81e5-77975ba1e18d}, !- Day Schedule Name
  No,                                     !- Apply Sunday
  No,                                     !- Apply Monday
  No,                                     !- Apply Tuesday
  No,                                     !- Apply Wednesday
  No,                                     !- Apply Thursday
  No,                                     !- Apply Friday
  Yes,                                    !- Apply Saturday
  DateRange,                              !- Date Specification Type
  1,                                      !- Start Month
  1,                                      !- Start Day
  12,                                     !- End Month
  31;                                     !- End Day

OS:Schedule:Day,
  {b60e41d4-01ad-4e51-81e5-77975ba1e18d}, !- Handle
  Schedule Day 3,                         !- Name
  {b3f51ee6-1e59-4c34-a2d8-08236a74619d}, !- Schedule Type Limits Name
  ,                                       !- Interpolate to Timestep
  6,                                      !- Hour 1
  0,                                      !- Minute 1
  1,                                      !- Value Until Time 1
  18,                                     !- Hour 2
  0,                                      !- Minute 2
  0.25,                                   !- Value Until Time 2
  24,                                     !- Hour 3
  0,                                      !- Minute 3
  1;                                      !- Value Until Time 3

OS:Schedule:Ruleset,
  {e4b9a840-a68f-4959-9331-6f1036705cf3}, !- Handle
  Generic Office Heating,                 !- Name
  {14a9fc31-7085-4e49-b070-26f7394b7f1b}, !- Schedule Type Limits Name
  {39eb0b74-f771-4987-ba6f-919702e8955e}, !- Default Day Schedule Name
  {a7322c18-dd43-489f-990b-9ae0ddb9db6f}, !- Summer Design Day Schedule Name
  {1eaad2dc-e807-475a-a935-a646e965b5c9}, !- Winter Design Day Schedule Name
  {3aa4921e-ebca-42e8-859f-63bfdeb706b0}; !- Holiday Schedule Name

OS:Schedule:Day,
  {39eb0b74-f771-4987-ba6f-919702e8955e}, !- Handle
  Schedule Day 4,                         !- Name
  {14a9fc31-7085-4e49-b070-26f7394b7f1b}, !- Schedule Type Limits Name
  ,                                       !- Interpolate to Timestep
  24,                                     !- Hour 1
  0,                                      !- Minute 1
  15.6;                                   !- Value Until Time 1

OS:Schedule:Day,
  {229f02cc-1fc6-4faf-92c4-26d61d9980c6}, !- Handle
  OfficeMedium HTGSETP_SCH_YES_OPTIMUM_Default, !- Name
  {14a9fc31-7085-4e49-b070-26f7394b7f1b}, !- Schedule Type Limits Name
  ,                                       !- Interpolate to Timestep
  24,                                     !- Hour 1
  0,                                      !- Minute 1
  15.6;                                   !- Value Until Time 1

OS:Schedule:Day,
  {d61ef3d3-7804-453d-8c5c-678abab5dc63}, !- Handle
  OfficeMedium HTGSETP_SCH_YES_OPTIMUM_Default_SmrDsn, !- Name
  {14a9fc31-7085-4e49-b070-26f7394b7f1b}, !- Schedule Type Limits Name
  ,                                       !- Interpolate to Timestep
  24,                                     !- Hour 1
  0,                                      !- Minute 1
  15.6;                                   !- Value Until Time 1

OS:Schedule:Day,
  {acbca27c-8aac-4211-9d67-9729afb53d2e}, !- Handle
  OfficeMedium HTGSETP_SCH_YES_OPTIMUM_WntrDsn, !- Name
  {14a9fc31-7085-4e49-b070-26f7394b7f1b}, !- Schedule Type Limits Name
  ,                                       !- Interpolate to Timestep
  5,                                      !- Hour 1
  0,                                      !- Minute 1
  15.6,                                   !- Value Until Time 1
  6,                                      !- Hour 2
  0,                                      !- Minute 2
  17.6,                                   !- Value Until Time 2
  7,                                      !- Hour 3
  0,                                      !- Minute 3
  19.6,                                   !- Value Until Time 3
  22,                                     !- Hour 4
  0,                                      !- Minute 4
  21,                                     !- Value Until Time 4
  24,                                     !- Hour 5
  0,                                      !- Minute 5
  15.6;                                   !- Value Until Time 5

OS:Schedule:Day,
  {6cccda76-8c4f-4333-9da1-549396df04ae}, !- Handle
  OfficeMedium HTGSETP_SCH_YES_OPTIMUM_Wkdy, !- Name
  {14a9fc31-7085-4e49-b070-26f7394b7f1b}, !- Schedule Type Limits Name
  ,                                       !- Interpolate to Timestep
  5,                                      !- Hour 1
  0,                                      !- Minute 1
  15.6,                                   !- Value Until Time 1
  6,                                      !- Hour 2
  0,                                      !- Minute 2
  17.8,                                   !- Value Until Time 2
  7,                                      !- Hour 3
  0,                                      !- Minute 3
  20,                                     !- Value Until Time 3
  22,                                     !- Hour 4
  0,                                      !- Minute 4
  21,                                     !- Value Until Time 4
  24,                                     !- Hour 5
  0,                                      !- Minute 5
  15.6;                                   !- Value Until Time 5

OS:Schedule:Day,
  {290b2e43-cc0f-47d4-b5d9-ef9e837929d4}, !- Handle
  OfficeMedium HTGSETP_SCH_YES_OPTIMUM_Sat, !- Name
  {14a9fc31-7085-4e49-b070-26f7394b7f1b}, !- Schedule Type Limits Name
  ,                                       !- Interpolate to Timestep
  5,                                      !- Hour 1
  0,                                      !- Minute 1
  15.6,                                   !- Value Until Time 1
  6,                                      !- Hour 2
  0,                                      !- Minute 2
  17.8,                                   !- Value Until Time 2
  7,                                      !- Hour 3
  0,                                      !- Minute 3
  20,                                     !- Value Until Time 3
  17,                                     !- Hour 4
  0,                                      !- Minute 4
  21,                                     !- Value Until Time 4
  24,                                     !- Hour 5
  0,                                      !- Minute 5
  15.6;                                   !- Value Until Time 5

OS:Schedule:Day,
  {3aa4921e-ebca-42e8-859f-63bfdeb706b0}, !- Handle
  OfficeMedium HTGSETP_SCH_YES_OPTIMUM_Default 1, !- Name
  {14a9fc31-7085-4e49-b070-26f7394b7f1b}, !- Schedule Type Limits Name
  ,                                       !- Interpolate to Timestep
  24,                                     !- Hour 1
  0,                                      !- Minute 1
  15.6;                                   !- Value Until Time 1

OS:Schedule:Day,
  {a7322c18-dd43-489f-990b-9ae0ddb9db6f}, !- Handle
  OfficeMedium HTGSETP_SCH_YES_OPTIMUM_Default_SmrDsn 1, !- Name
  {14a9fc31-7085-4e49-b070-26f7394b7f1b}, !- Schedule Type Limits Name
  ,                                       !- Interpolate to Timestep
  24,                                     !- Hour 1
  0,                                      !- Minute 1
  15.6;                                   !- Value Until Time 1

OS:Schedule:Day,
  {1eaad2dc-e807-475a-a935-a646e965b5c9}, !- Handle
  OfficeMedium HTGSETP_SCH_YES_OPTIMUM_WntrDsn 1, !- Name
  {14a9fc31-7085-4e49-b070-26f7394b7f1b}, !- Schedule Type Limits Name
  ,                                       !- Interpolate to Timestep
  5,                                      !- Hour 1
  0,                                      !- Minute 1
  15.6,                                   !- Value Until Time 1
  6,                                      !- Hour 2
  0,                                      !- Minute 2
  17.6,                                   !- Value Until Time 2
  7,                                      !- Hour 3
  0,                                      !- Minute 3
  19.6,                                   !- Value Until Time 3
  22,                                     !- Hour 4
  0,                                      !- Minute 4
  21,                                     !- Value Until Time 4
  24,                                     !- Hour 5
  0,                                      !- Minute 5
  15.6;                                   !- Value Until Time 5

OS:Schedule:Rule,
  {29db36b8-7533-485d-990a-d247d00d1961}, !- Handle
  Schedule Rule 3,                        !- Name
  {e4b9a840-a68f-4959-9331-6f1036705cf3}, !- Schedule Ruleset Name
  0,                                      !- Rule Order
  {4e3e4870-8561-4e4b-acec-6c283b47b701}, !- Day Schedule Name
  No,                                     !- Apply Sunday
  Yes,                                    !- Apply Monday
  Yes,                                    !- Apply Tuesday
  Yes,                                    !- Apply Wednesday
  Yes,                                    !- Apply Thursday
  Yes,                                    !- Apply Friday
  No,                                     !- Apply Saturday
  DateRange,                              !- Date Specification Type
  1,                                      !- Start Month
  1,                                      !- Start Day
  12,                                     !- End Month
  31;                                     !- End Day

OS:Schedule:Day,
  {4e3e4870-8561-4e4b-acec-6c283b47b701}, !- Handle
  Schedule Day 5,                         !- Name
  {14a9fc31-7085-4e49-b070-26f7394b7f1b}, !- Schedule Type Limits Name
  ,                                       !- Interpolate to Timestep
  5,                                      !- Hour 1
  0,                                      !- Minute 1
  15.6,                                   !- Value Until Time 1
  6,                                      !- Hour 2
  0,                                      !- Minute 2
  17.8,                                   !- Value Until Time 2
  7,                                      !- Hour 3
  0,                                      !- Minute 3
  20,                                     !- Value Until Time 3
  22,                                     !- Hour 4
  0,                                      !- Minute 4
  21,                                     !- Value Until Time 4
  24,                                     !- Hour 5
  0,                                      !- Minute 5
  15.6;                                   !- Value Until Time 5

OS:Schedule:Rule,
  {821878f7-2200-47bd-bf45-2205d39136f6}, !- Handle
  Schedule Rule 4,                        !- Name
  {e4b9a840-a68f-4959-9331-6f1036705cf3}, !- Schedule Ruleset Name
  1,                                      !- Rule Order
  {d82ea5ea-f0dd-48b8-b0c2-d84114b7a00f}, !- Day Schedule Name
  No,                                     !- Apply Sunday
  No,                                     !- Apply Monday
  No,                                     !- Apply Tuesday
  No,                                     !- Apply Wednesday
  No,                                     !- Apply Thursday
  No,                                     !- Apply Friday
  Yes,                                    !- Apply Saturday
  DateRange,                              !- Date Specification Type
  1,                                      !- Start Month
  1,                                      !- Start Day
  12,                                     !- End Month
  31;                                     !- End Day

OS:Schedule:Day,
  {d82ea5ea-f0dd-48b8-b0c2-d84114b7a00f}, !- Handle
  Schedule Day 6,                         !- Name
  {14a9fc31-7085-4e49-b070-26f7394b7f1b}, !- Schedule Type Limits Name
  ,                                       !- Interpolate to Timestep
  5,                                      !- Hour 1
  0,                                      !- Minute 1
  15.6,                                   !- Value Until Time 1
  6,                                      !- Hour 2
  0,                                      !- Minute 2
  17.8,                                   !- Value Until Time 2
  7,                                      !- Hour 3
  0,                                      !- Minute 3
  20,                                     !- Value Until Time 3
  17,                                     !- Hour 4
  0,                                      !- Minute 4
  21,                                     !- Value Until Time 4
  24,                                     !- Hour 5
  0,                                      !- Minute 5
  15.6;                                   !- Value Until Time 5

OS:Schedule:Ruleset,
  {5aa6b88b-2faa-4e42-b423-9e6aedf81308}, !- Handle
  Generic Office Equipment,               !- Name
  {b3f51ee6-1e59-4c34-a2d8-08236a74619d}, !- Schedule Type Limits Name
  {16c50ab9-8097-4419-9ab1-3e88c139a210}, !- Default Day Schedule Name
  {cdf35ff7-ff9c-4aea-bd4e-a9d431ecd611}, !- Summer Design Day Schedule Name
  {6c653a08-df41-43e2-97e4-508067c908f5}, !- Winter Design Day Schedule Name
  {bb490fed-8d13-4f21-b135-13aee079a55e}; !- Holiday Schedule Name

OS:Schedule:Day,
  {16c50ab9-8097-4419-9ab1-3e88c139a210}, !- Handle
  Schedule Day 7,                         !- Name
  {b3f51ee6-1e59-4c34-a2d8-08236a74619d}, !- Schedule Type Limits Name
  ,                                       !- Interpolate to Timestep