
OS:Version,
  {ded1d783-7d1f-4a8f-a209-5aa562bba7cf}, !- Handle
  3.0.1;                                  !- Version Identifier

OS:Building,
  {80094c16-d681-457b-98e6-4744d8d70c57}, !- Handle
  Building 1,                             !- Name
  ,                                       !- Building Sector Type
  -0,                                     !- North Axis {deg}
  ,                                       !- Nominal Floor to Floor Height {m}
  ,                                       !- Space Type Name
  {f2aeb48a-fb72-464f-a793-4dbf1d135de1}, !- Default Construction Set Name
  ,                                       !- Default Schedule Set Name
  ,                                       !- Standards Number of Stories
  ,                                       !- Standards Number of Above Ground Stories
  ,                                       !- Standards Template
  MediumOffice;                           !- Standards Building Type

OS:Facility,
  {93e64380-d8c9-4b17-8689-c0d7ba2e37fd}; !- Handle

OS:Site,
  {0b2c0086-2d75-45a8-8851-fcd54964bc19}, !- Handle
  Site 1,                                 !- Name
  ,                                       !- Latitude {deg}
  ,                                       !- Longitude {deg}
  ,                                       !- Time Zone {hr}
  ,                                       !- Elevation {m}
  City;                                   !- Terrain

OS:SimulationControl,
  {8e59a662-8915-42dc-b3ed-c97283be7134}, !- Handle
  Yes,                                    !- Do Zone Sizing Calculation
  Yes,                                    !- Do System Sizing Calculation
  Yes,                                    !- Do Plant Sizing Calculation
  No,                                     !- Run Simulation for Sizing Periods
  Yes,                                    !- Run Simulation for Weather File Run Periods
  ,                                       !- Loads Convergence Tolerance Value {W}
  ,                                       !- Temperature Convergence Tolerance Value {deltaC}
  FullExteriorWithReflections;            !- Solar Distribution

OS:Sizing:Parameters,
  {c582f42e-d2b2-4a91-9a0b-15c7d8de014b}, !- Handle
  1.25,                                   !- Heating Sizing Factor
  1.15;                                   !- Cooling Sizing Factor

OS:Timestep,
  {0364c723-0660-4b6b-be1a-12cda8a01b42}, !- Handle
  6;                                      !- Number of Timesteps per Hour

OS:ShadowCalculation,
  {7fa42da8-e47c-4c43-b292-c9799fca5966}, !- Handle
  PolygonClipping,                        !- Shading Calculation Method
  Periodic,                               !- Shading Calculation Update Frequency Method
  30,                                     !- Shading Calculation Update Frequency
  15000,                                  !- Maximum Figures in Shadow Overlap Calculations
  ,                                       !- Polygon Clipping Algorithm
  512,                                    !- Pixel Counting Resolution
  ,                                       !- Sky Diffuse Modeling Algorithm
  No,                                     !- Output External Shading Calculation Results
  No,                                     !- Disable Self-Shading Within Shading Zone Groups
  No;                                     !- Disable Self-Shading From Shading Zone Groups to Other Zones

OS:HeatBalanceAlgorithm,
  {0b3acbaf-78ac-44e5-b7c2-81de270e2ef1}, !- Handle
  ConductionTransferFunction,             !- Algorithm
  200;                                    !- Surface Temperature Upper Limit {C}

OS:RunPeriod,
  {f865227b-2208-4b03-a9be-b13fbf541804}, !- Handle
  Run Period 1,                           !- Name
  1,                                      !- Begin Month
  1,                                      !- Begin Day of Month
  1,                                      !- End Month
  31,                                     !- End Day of Month
  ,                                       !- Use Weather File Holidays and Special Days
  ,                                       !- Use Weather File Daylight Saving Period
  ,                                       !- Apply Weekend Holiday Rule
  ,                                       !- Use Weather File Rain Indicators
  ,                                       !- Use Weather File Snow Indicators
  ;                                       !- Number of Times Runperiod to be Repeated

OS:LifeCycleCost:Parameters,
  {5a22c675-ce4f-436c-9edd-392d82c8c51c}, !- Handle
  ,                                       !- Analysis Type
  ,                                       !- Discounting Convention
  ,                                       !- Inflation Approach
  ,                                       !- Real Discount Rate
  ,                                       !- Nominal Discount Rate
  ,                                       !- Inflation
  ,                                       !- Base Date Month
  ,                                       !- Base Date Year
  ,                                       !- Service Date Month
  ,                                       !- Service Date Year
  ;                                       !- Length of Study Period in Years

OS:WeatherFile,
  {7865f052-73dd-4455-80f1-9560edf1e4b0}, !- Handle
  Boston Logan IntL Arpt,                 !- City
  MA,                                     !- State Province Region
  USA,                                    !- Country
  TMY3,                                   !- Data Source
  725090,                                 !- WMO Number
  42.37,                                  !- Latitude {deg}
  -71.02,                                 !- Longitude {deg}
  -5,                                     !- Time Zone {hr}
  6,                                      !- Elevation {m}
  C:/Users/Administrator/ladybug_tools/resources/weather/USA_MA_Boston-Logan.Intl.AP.725090_TMY3/USA_MA_Boston-Logan.Intl.AP.725090_TMY3.epw, !- Url
  B65824C3;                               !- Checksum

OS:ScheduleTypeLimits,
  {8483f09e-2e77-4df7-981e-3a7e12b1f310}, !- Handle
  Temperature,                            !- Name
  -273.15,                                !- Lower Limit Value
  ,                                       !- Upper Limit Value
  Continuous,                             !- Numeric Type
  Temperature;                            !- Unit Type

OS:ScheduleTypeLimits,
  {fb875424-fba9-4139-a514-e091e6f7596a}, !- Handle
  Activity Level,                         !- Name
  0,                                      !- Lower Limit Value
  ,                                       !- Upper Limit Value
  Continuous,                             !- Numeric Type
  ActivityLevel;                          !- Unit Type

OS:ScheduleTypeLimits,
  {5fa07d68-e9e2-432b-bc63-e2f705a3291d}, !- Handle
  Fractional,                             !- Name
  0,                                      !- Lower Limit Value
  1,                                      !- Upper Limit Value
  Continuous,                             !- Numeric Type
  Dimensionless;                          !- Unit Type

OS:Schedule:Ruleset,
  {0cab542e-3bb2-4d6e-969a-6bf496a4de20}, !- Handle
  Generic Office Infiltration,            !- Name
  {5fa07d68-e9e2-432b-bc63-e2f705a3291d}, !- Schedule Type Limits Name
  {2318cf9f-b31b-442e-b4d6-02b8d2b51a07}, !- Default Day Schedule Name
  {c967f8fe-11cb-49a5-acb4-fb9b6b4be324}, !- Summer Design Day Schedule Name
  {35e572b7-c8c5-4584-b6a5-992f9b6c5b6b}, !- Winter Design Day Schedule Name
  {74c5a66c-ac95-488d-8905-9e390b18c39b}; !- Holiday Schedule Name

OS:Schedule:Day,
  {2318cf9f-b31b-442e-b4d6-02b8d2b51a07}, !- Handle
  Schedule Day 1,                         !- Name
  {5fa07d68-e9e2-432b-bc63-e2f705a3291d}, !- Schedule Type Limits Name
  ,                                       !- Interpolate to Timestep
  24,                                     !- Hour 1
  0,                                      !- Minute 1
  1;                                      !- Value Until Time 1

OS:Schedule:Day,
  {7e2903b3-2d7e-4e5a-b843-de959310a36a}, !- Handle
  OfficeMedium INFIL_SCH_PNNL_Default,    !- Name
  {5fa07d68-e9e2-432b-bc63-e2f705a3291d}, !- Schedule Type Limits Name
  ,                                       !- Interpolate to Timestep
  24,                                     !- Hour 1
  0,                                      !- Minute 1
  1;                                      !- Value Until Time 1

OS:Schedule:Day,
  {324e40d5-95de-47f2-9104-91c739e1ac2a}, !- Handle
  OfficeMedium INFIL_SCH_PNNL_Wkdy_SmrDsn, !- Name
  {5fa07d68-e9e2-432b-bc63-e2f705a3291d}, !- Schedule Type Limits Name
  ,                                       !- Interpolate to Timestep
  6,                                      !- Hour 1
  0,                                      !- Minute 1
  1,                                      !- Value Until Time 1
  22,                                     !- Hour 2
  0,                                      !- Minute 2
  0.25,                                   !- Value Until Time 2
  24,                                     !- Hour 3
  0,                                      !- Minute 3
  1;                                      !- Value Until Time 3

OS:Schedule:Day,
  {2bd374f0-8a97-47a3-9395-7bbdeff83800}, !- Handle
  OfficeMedium INFIL_SCH_PNNL_Sat_WntrDsn, !- Name
  {5fa07d68-e9e2-432b-bc63-e2f705a3291d}, !- Schedule Type Limits Name
  ,                                       !- Interpolate to Timestep
  6,                                      !- Hour 1
  0,                                      !- Minute 1
  1,                                      !- Value Until Time 1
  18,                                     !- Hour 2
  0,                                      !- Minute 2
  0.25,                                   !- Value Until Time 2
  24,                                     !- Hour 3
  0,                                      !- Minute 3
  1;                                      !- Value Until Time 3

OS:Schedule:Day,
  {3b711651-c47a-48de-83d9-0e1fd31e393c}, !- Handle
  OfficeMedium INFIL_SCH_PNNL_Wkdy,       !- Name
  {5fa07d68-e9e2-432b-bc63-e2f705a3291d}, !- Schedule Type Limits Name
  ,                                       !- Interpolate to Timestep
  6,                                      !- Hour 1
  0,                                      !- Minute 1
  1,                                      !- Value Until Time 1
  22,                                     !- Hour 2
  0,                                      !- Minute 2
  0.25,                                   !- Value Until Time 2
  24,                                     !- Hour 3
  0,                                      !- Minute 3
  1;                                      !- Value Until Time 3

OS:Schedule:Day,
  {bfbe9291-e6c1-4e69-a981-dd64d00a3e40}, !- Handle
  OfficeMedium INFIL_SCH_PNNL_Sat,        !- Name
  {5fa07d68-e9e2-432b-bc63-e2f705a3291d}, !- Schedule Type Limits Name
  ,                                       !- Interpolate to Timestep
  6,                                      !- Hour 1
  0,                                      !- Minute 1
  1,                                      !- Value Until Time 1
  18,                                     !- Hour 2
  0,                                      !- Minute 2
  0.25,                                   !- Value Until Time 2
  24,                                     !- Hour 3
  0,                                      !- Minute 3
  1;                                      !- Value Until Time 3

OS:Schedule:Day,
  {74c5a66c-ac95-488d-8905-9e390b18c39b}, !- Handle
  OfficeMedium INFIL_SCH_PNNL_Default 1,  !- Name
  {5fa07d68-e9e2-432b-bc63-e2f705a3291d}, !- Schedule Type Limits Name
  ,                                       !- Interpolate to Timestep
  24,                                     !- Hour 1
  0,                                      !- Minute 1
  1;                                      !- Value Until Time 1

OS:Schedule:Day,
  {c967f8fe-11cb-49a5-acb4-fb9b6b4be324}, !- Handle
  OfficeMedium INFIL_SCH_PNNL_Wkdy_SmrDsn 1, !- Name
  {5fa07d68-e9e2-432b-bc63-e2f705a3291d}, !- Schedule Type Limits Name
  ,                                       !- Interpolate to Timestep
  6,                                      !- Hour 1
  0,                                      !- Minute 1
  1,                                      !- Value Until Time 1
  22,                                     !- Hour 2
  0,                                      !- Minute 2
  0.25,                                   !- Value Until Time 2
  24,                                     !- Hour 3
  0,                                      !- Minute 3
  1;                                      !- Value Until Time 3

OS:Schedule:Day,
  {35e572b7-c8c5-4584-b6a5-992f9b6c5b6b}, !- Handle
  OfficeMedium INFIL_SCH_PNNL_Sat_WntrDsn 1, !- Name
  {5fa07d68-e9e2-432b-bc63-e2f705a3291d}, !- Schedule Type Limits Name
  ,                                       !- Interpolate to Timestep
  6,                                      !- Hour 1
  0,                                      !- Minute 1
  1,                                      !- Value Until Time 1
  18,                                     !- Hour 2
  0,                                      !- Minute 2
  0.25,                                   !- Value Until Time 2
  24,                                     !- Hour 3
  0,                                      !- Minute 3
  1;                                      !- Value Until Time 3

OS:Schedule:Rule,
  {a5de927e-a346-481e-9319-1e053f0e0169}, !- Handle
  Schedule Rule 1,                        !- Name
  {0cab542e-3bb2-4d6e-969a-6bf496a4de20}, !- Schedule Ruleset Name
  0,                                      !- Rule Order
  {7401cd04-15d1-4104-bfe1-2ca3761d146c}, !- Day Schedule Name
  No,                                     !- Apply Sunday
  Yes,                                    !- Apply Monday
  Yes,                                    !- Apply Tuesday
  Yes,                                    !- Apply Wednesday
  Yes,                                    !- Apply Thursday
  Yes,                                    !- Apply Friday
  No,                                     !- Apply Saturday
  DateRange,                              !- Date Specification Type
  1,                                      !- Start Month
  1,                                      !- Start Day
  12,                                     !- End Month
  31;                                     !- End Day

OS:Schedule:Day,
  {7401cd04-15d1-4104-bfe1-2ca3761d146c}, !- Handle
  Schedule Day 2,                         !- Name
  {5fa07d68-e9e2-432b-bc63-e2f705a3291d}, !- Schedule Type Limits Name
  ,                                       !- Interpolate to Timestep
  6,                                      !- Hour 1
  0,                                      !- Minute 1
  1,                                      !- Value Until Time 1
  22,                                     !- Hour 2
  0,                                      !- Minute 2
  0.25,                                   !- Value Until Time 2
  24,                                     !- Hour 3
  0,                                      !- Minute 3
  1;                                      !- Value Until Time 3

OS:YearDescription,
  {e583dd9c-4f60-487a-87c7-71bebe99e789}, !- Handle
  ,                                       !- Calendar Year
  Sunday;                                 !- Day of Week for Start Day

OS:Schedule:Rule,
  {16f1bf3e-7b31-4b50-a66a-446f9d87bb6f}, !- Handle
  Schedule Rule 2,                        !- Name
  {0cab542e-3bb2-4d6e-969a-6bf496a4de20}, !- Schedule Ruleset Name
  1,                                      !- Rule Order
  {6d93b892-76b9-495a-9283-89d0e177c360}, !- Day Schedule Name
  No,                                     !- Apply Sunday
  No,                                     !- Apply Monday
  No,                                     !- Apply Tuesday
  No,                                     !- Apply Wednesday
  No,                                     !- Apply Thursday
  No,                                     !- Apply Friday
  Yes,                                    !- Apply Saturday
  DateRange,                              !- Date Specification Type
  1,                                      !- Start Month
  1,                                      !- Start Day
  12,                                     !- End Month
  31;                                     !- End Day

OS:Schedule:Day,
  {6d93b892-76b9-495a-9283-89d0e177c360}, !- Handle
  Schedule Day 3,                         !- Name
  {5fa07d68-e9e2-432b-bc63-e2f705a3291d}, !- Schedule Type Limits Name
  ,                                       !- Interpolate to Timestep
  6,                                      !- Hour 1
  0,                                      !- Minute 1
  1,                                      !- Value Until Time 1
  18,                                     !- Hour 2
  0,                                      !- Minute 2
  0.25,                                   !- Value Until Time 2
  24,                                     !- Hour 3
  0,                                      !- Minute 3
  1;                                      !- Value Until Time 3

OS:Schedule:Ruleset,
  {c084bb77-27f8-4a8b-97c9-40dcb71100f2}, !- Handle
  Generic Office Heating,                 !- Name
  {8483f09e-2e77-4df7-981e-3a7e12b1f310}, !- Schedule Type Limits Name
  {f32b343a-00a4-40fd-ab27-bff30b442540}, !- Default Day Schedule Name
  {ddf7197f-2942-4a32-b840-07e6b6d0c523}, !- Summer Design Day Schedule Name
  {8470da18-3b29-45a5-a0ad-268022e10556}, !- Winter Design Day Schedule Name
  {417206ee-4b3c-4e07-87ec-b32ba19f2fa0}; !- Holiday Schedule Name

OS:Schedule:Day,
  {f32b343a-00a4-40fd-ab27-bff30b442540}, !- Handle
  Schedule Day 4,                         !- Name
  {8483f09e-2e77-4df7-981e-3a7e12b1f310}, !- Schedule Type Limits Name
  ,                                       !- Interpolate to Timestep
  24,                                     !- Hour 1
  0,                                      !- Minute 1
  15.6;                                   !- Value Until Time 1

OS:Schedule:Day,
  {32283b87-cdde-4a3f-a4e3-67589cb2bc49}, !- Handle
  OfficeMedium HTGSETP_SCH_YES_OPTIMUM_Default, !- Name
  {8483f09e-2e77-4df7-981e-3a7e12b1f310}, !- Schedule Type Limits Name
  ,                                       !- Interpolate to Timestep
  24,                                     !- Hour 1
  0,                                      !- Minute 1
  15.6;                                   !- Value Until Time 1

OS:Schedule:Day,
  {4b23ef2d-3e03-4d49-8986-5c8d1004373f}, !- Handle
  OfficeMedium HTGSETP_SCH_YES_OPTIMUM_Default_SmrDsn, !- Name
  {8483f09e-2e77-4df7-981e-3a7e12b1f310}, !- Schedule Type Limits Name
  ,                                       !- Interpolate to Timestep
  24,                                     !- Hour 1
  0,                                      !- Minute 1
  15.6;                                   !- Value Until Time 1

OS:Schedule:Day,
  {839ef58a-5d94-4dc3-a757-d08998418d35}, !- Handle
  OfficeMedium HTGSETP_SCH_YES_OPTIMUM_WntrDsn, !- Name
  {8483f09e-2e77-4df7-981e-3a7e12b1f310}, !- Schedule Type Limits Name
  ,                                       !- Interpolate to Timestep
  5,                                      !- Hour 1
  0,                                      !- Minute 1
  15.6,                                   !- Value Until Time 1
  6,                                      !- Hour 2
  0,                                      !- Minute 2
  17.6,                                   !- Value Until Time 2
  7,                                      !- Hour 3
  0,                                      !- Minute 3
  19.6,                                   !- Value Until Time 3
  22,                                     !- Hour 4
  0,                                      !- Minute 4
  21,                                     !- Value Until Time 4
  24,                                     !- Hour 5
  0,                                      !- Minute 5
  15.6;                                   !- Value Until Time 5

OS:Schedule:Day,
  {eab30695-09e7-47a3-891e-53fa1169620e}, !- Handle
  OfficeMedium HTGSETP_SCH_YES_OPTIMUM_Wkdy, !- Name
  {8483f09e-2e77-4df7-981e-3a7e12b1f310}, !- Schedule Type Limits Name
  ,                                       !- Interpolate to Timestep
  5,                                      !- Hour 1
  0,                                      !- Minute 1
  15.6,                                   !- Value Until Time 1
  6,                                      !- Hour 2
  0,                                      !- Minute 2
  17.8,                                   !- Value Until Time 2
  7,                                      !- Hour 3
  0,                                      !- Minute 3
  20,                                     !- Value Until Time 3
  22,                                     !- Hour 4
  0,                                      !- Minute 4
  21,                                     !- Value Until Time 4
  24,                                     !- Hour 5
  0,                                      !- Minute 5
  15.6;                                   !- Value Until Time 5

OS:Schedule:Day,
  {893b9c17-a8f7-46b3-a5ea-17ed4921c23a}, !- Handle
  OfficeMedium HTGSETP_SCH_YES_OPTIMUM_Sat, !- Name
  {8483f09e-2e77-4df7-981e-3a7e12b1f310}, !- Schedule Type Limits Name
  ,                                       !- Interpolate to Timestep
  5,                                      !- Hour 1
  0,                                      !- Minute 1
  15.6,                                   !- Value Until Time 1
  6,                                      !- Hour 2
  0,                                      !- Minute 2
  17.8,                                   !- Value Until Time 2
  7,                                      !- Hour 3
  0,                                      !- Minute 3
  20,                                     !- Value Until Time 3
  17,                                     !- Hour 4
  0,                                      !- Minute 4
  21,                                     !- Value Until Time 4
  24,                                     !- Hour 5
  0,                                      !- Minute 5
  15.6;                                   !- Value Until Time 5

OS:Schedule:Day,
  {417206ee-4b3c-4e07-87ec-b32ba19f2fa0}, !- Handle
  OfficeMedium HTGSETP_SCH_YES_OPTIMUM_Default 1, !- Name
  {8483f09e-2e77-4df7-981e-3a7e12b1f310}, !- Schedule Type Limits Name
  ,                                       !- Interpolate to Timestep
  24,                                     !- Hour 1
  0,                                      !- Minute 1
  15.6;                                   !- Value Until Time 1

OS:Schedule:Day,
  {ddf7197f-2942-4a32-b840-07e6b6d0c523}, !- Handle
  OfficeMedium HTGSETP_SCH_YES_OPTIMUM_Default_SmrDsn 1, !- Name
  {8483f09e-2e77-4df7-981e-3a7e12b1f310}, !- Schedule Type Limits Name
  ,                                       !- Interpolate to Timestep
  24,                                     !- Hour 1
  0,                                      !- Minute 1
  15.6;                                   !- Value Until Time 1

OS:Schedule:Day,
  {8470da18-3b29-45a5-a0ad-268022e10556}, !- Handle
  OfficeMedium HTGSETP_SCH_YES_OPTIMUM_WntrDsn 1, !- Name
  {8483f09e-2e77-4df7-981e-3a7e12b1f310}, !- Schedule Type Limits Name
  ,                                       !- Interpolate to Timestep
  5,                                      !- Hour 1
  0,                                      !- Minute 1
  15.6,                                   !- Value Until Time 1
  6,                                      !- Hour 2
  0,                                      !- Minute 2
  17.6,                                   !- Value Until Time 2
  7,                                      !- Hour 3
  0,                                      !- Minute 3
  19.6,                                   !- Value Until Time 3
  22,                                     !- Hour 4
  0,                                      !- Minute 4
  21,                                     !- Value Until Time 4
  24,                                     !- Hour 5
  0,                                      !- Minute 5
  15.6;                                   !- Value Until Time 5

OS:Schedule:Rule,
  {9fc2db56-18d3-4722-8c38-5f348293dd4c}, !- Handle
  Schedule Rule 3,                        !- Name
  {c084bb77-27f8-4a8b-97c9-40dcb71100f2}, !- Schedule Ruleset Name
  0,                                      !- Rule Order
  {d2d86d0c-312f-47fc-b537-a28b22aa602b}, !- Day Schedule Name
  No,                                     !- Apply Sunday
  Yes,                                    !- Apply Monday
  Yes,                                    !- Apply Tuesday
  Yes,                                    !- Apply Wednesday
  Yes,                                    !- Apply Thursday
  Yes,                                    !- Apply Friday
  No,                                     !- Apply Saturday
  DateRange,                              !- Date Specification Type
  1,                                      !- Start Month
  1,                                      !- Start Day
  12,                                     !- End Month
  31;                                     !- End Day

OS:Schedule:Day,
  {d2d86d0c-312f-47fc-b537-a28b22aa602b}, !- Handle
  Schedule Day 5,                         !- Name
  {8483f09e-2e77-4df7-981e-3a7e12b1f310}, !- Schedule Type Limits Name
  ,                                       !- Interpolate to Timestep
  5,                                      !- Hour 1
  0,                                      !- Minute 1
  15.6,                                   !- Value Until Time 1
  6,                                      !- Hour 2
  0,                                      !- Minute 2
  17.8,                                   !- Value Until Time 2
  7,                                      !- Hour 3
  0,                                      !- Minute 3
  20,                                     !- Value Until Time 3
  22,                                     !- Hour 4
  0,                                      !- Minute 4
  21,                                     !- Value Until Time 4
  24,                                     !- Hour 5
  0,                                      !- Minute 5
  15.6;                                   !- Value Until Time 5

OS:Schedule:Rule,
  {4997a735-c9ef-4b68-9287-954412d347b8}, !- Handle
  Schedule Rule 4,                        !- Name
  {c084bb77-27f8-4a8b-97c9-40dcb71100f2}, !- Schedule Ruleset Name
  1,                                      !- Rule Order
  {766395ed-8c15-4414-ad79-8b9ed6f44e12}, !- Day Schedule Name
  No,                                     !- Apply Sunday
  No,                                     !- Apply Monday
  No,                                     !- Apply Tuesday
  No,                                     !- Apply Wednesday
  No,                                     !- Apply Thursday
  No,                                     !- Apply Friday
  Yes,                                    !- Apply Saturday
  DateRange,                              !- Date Specification Type
  1,                                      !- Start Month
  1,                                      !- Start Day
  12,                                     !- End Month
  31;                                     !- End Day

OS:Schedule:Day,
  {766395ed-8c15-4414-ad79-8b9ed6f44e12}, !- Handle
  Schedule Day 6,                         !- Name
  {8483f09e-2e77-4df7-981e-3a7e12b1f310}, !- Schedule Type Limits Name
  ,                                       !- Interpolate to Timestep
  5,                                      !- Hour 1
  0,                                      !- Minute 1
  15.6,                                   !- Value Until Time 1
  6,                                      !- Hour 2
  0,                                      !- Minute 2
  17.8,                                   !- Value Until Time 2
  7,                                      !- Hour 3
  0,                                      !- Minute 3
  20,                                     !- Value Until Time 3
  17,                                     !- Hour 4
  0,                                      !- Minute 4
  21,                                     !- Value Until Time 4
  24,                                     !- Hour 5
  0,                                      !- Minute 5
  15.6;                                   !- Value Until Time 5

OS:Schedule:Ruleset,
  {07d7b767-ed78-4e68-92f7-a23554d3a8cb}, !- Handle
  Generic Office Equipment,               !- Name
  {5fa07d68-e9e2-432b-bc63-e2f705a3291d}, !- Schedule Type Limits Name
  {3b96b82f-1ba0-4813-9e09-38ef4e946302}, !- Default Day Schedule Name
  {31f67a83-a426-43a6-8228-fd6690984d39}, !- Summer Design Day Schedule Name
  {c0b8b812-a723-4421-a389-d9072aa4e2c3}, !- Winter Design Day Schedule Name
  {6806be5d-79e2-433f-a456-aafc54fb0877}; !- Holiday Schedule Name

OS:Schedule:Day,
  {3b96b82f-1ba0-4813-9e09-38ef4e946302}, !- Handle
  Schedule Day 7,                         !- Name
  {5fa07d68-e9e2-432b-bc63-e2f705a3291d}, !- Schedule Type Limits Name
  ,                                       !- Interpolate to Timestep