
OS:Version,
  {7eb99f8b-86e7-4503-b3cf-42e44c66bfe3}, !- Handle
  3.0.1;                                  !- Version Identifier

OS:Building,
  {bf72938e-e9d8-4b60-bb65-097faf5f7448}, !- Handle
  Building 1,                             !- Name
  ,                                       !- Building Sector Type
  -0,                                     !- North Axis {deg}
  ,                                       !- Nominal Floor to Floor Height {m}
  ,                                       !- Space Type Name
  {46600eb8-b78e-490f-a53b-1bafe3422b4b}, !- Default Construction Set Name
  ,                                       !- Default Schedule Set Name
  ,                                       !- Standards Number of Stories
  ,                                       !- Standards Number of Above Ground Stories
  ,                                       !- Standards Template
  MediumOffice;                           !- Standards Building Type

OS:Facility,
  {5570f9ef-ac52-4ccd-847f-44b03f54c3ef}; !- Handle

OS:Site,
  {00d38396-5700-438d-8dd9-971f98ec09f9}, !- Handle
  Site 1,                                 !- Name
  ,                                       !- Latitude {deg}
  ,                                       !- Longitude {deg}
  ,                                       !- Time Zone {hr}
  ,                                       !- Elevation {m}
  City;                                   !- Terrain

OS:SimulationControl,
  {ace15b8f-ef95-42b3-b1e9-1ed4c154e5de}, !- Handle
  Yes,                                    !- Do Zone Sizing Calculation
  Yes,                                    !- Do System Sizing Calculation
  Yes,                                    !- Do Plant Sizing Calculation
  No,                                     !- Run Simulation for Sizing Periods
  Yes,                                    !- Run Simulation for Weather File Run Periods
  ,                                       !- Loads Convergence Tolerance Value {W}
  ,                                       !- Temperature Convergence Tolerance Value {deltaC}
  FullExteriorWithReflections;            !- Solar Distribution

OS:Sizing:Parameters,
  {5da644ca-05ff-48e2-83d3-e81d4ff3b30f}, !- Handle
  1.25,                                   !- Heating Sizing Factor
  1.15;                                   !- Cooling Sizing Factor

OS:Timestep,
  {f1749a2d-94e4-471e-a334-91da1409f21a}, !- Handle
  6;                                      !- Number of Timesteps per Hour

OS:ShadowCalculation,
  {d368ce76-6884-4694-aa5c-989c6c9ceb40}, !- Handle
  PolygonClipping,                        !- Shading Calculation Method
  Periodic,                               !- Shading Calculation Update Frequency Method
  30,                                     !- Shading Calculation Update Frequency
  15000,                                  !- Maximum Figures in Shadow Overlap Calculations
  ,                                       !- Polygon Clipping Algorithm
  512,                                    !- Pixel Counting Resolution
  ,                                       !- Sky Diffuse Modeling Algorithm
  No,                                     !- Output External Shading Calculation Results
  No,                                     !- Disable Self-Shading Within Shading Zone Groups
  No;                                     !- Disable Self-Shading From Shading Zone Groups to Other Zones

OS:HeatBalanceAlgorithm,
  {56632abb-1cde-4843-b6ed-ce45e419107e}, !- Handle
  ConductionTransferFunction,             !- Algorithm
  200;                                    !- Surface Temperature Upper Limit {C}

OS:RunPeriod,
  {dbd30f7a-97ac-42c9-91c6-6dd9fade5d3a}, !- Handle
  Run Period 1,                           !- Name
  1,                                      !- Begin Month
  1,                                      !- Begin Day of Month
  1,                                      !- End Month
  31,                                     !- End Day of Month
  ,                                       !- Use Weather File Holidays and Special Days
  ,                                       !- Use Weather File Daylight Saving Period
  ,                                       !- Apply Weekend Holiday Rule
  ,                                       !- Use Weather File Rain Indicators
  ,                                       !- Use Weather File Snow Indicators
  ;                                       !- Number of Times Runperiod to be Repeated

OS:LifeCycleCost:Parameters,
  {fedcbd73-03a1-40dc-bcdb-cdbc80d5790f}, !- Handle
  ,                                       !- Analysis Type
  ,                                       !- Discounting Convention
  ,                                       !- Inflation Approach
  ,                                       !- Real Discount Rate
  ,                                       !- Nominal Discount Rate
  ,                                       !- Inflation
  ,                                       !- Base Date Month
  ,                                       !- Base Date Year
  ,                                       !- Service Date Month
  ,                                       !- Service Date Year
  ;                                       !- Length of Study Period in Years

OS:WeatherFile,
  {daf0b316-e75d-4daa-9c7b-aba21528c340}, !- Handle
  Boston Logan IntL Arpt,                 !- City
  MA,                                     !- State Province Region
  USA,                                    !- Country
  TMY3,                                   !- Data Source
  725090,                                 !- WMO Number
  42.37,                                  !- Latitude {deg}
  -71.02,                                 !- Longitude {deg}
  -5,                                     !- Time Zone {hr}
  6,                                      !- Elevation {m}
  C:/Users/Administrator/ladybug_tools/resources/weather/USA_MA_Boston-Logan.Intl.AP.725090_TMY3/USA_MA_Boston-Logan.Intl.AP.725090_TMY3.epw, !- Url
  B65824C3;                               !- Checksum

OS:ScheduleTypeLimits,
  {daa81c67-ade2-49de-8638-c5bc166b5738}, !- Handle
  Temperature,                            !- Name
  -273.15,                                !- Lower Limit Value
  ,                                       !- Upper Limit Value
  Continuous,                             !- Numeric Type
  Temperature;                            !- Unit Type

OS:ScheduleTypeLimits,
  {b57c8953-b394-403a-8163-137c2e664a3e}, !- Handle
  Activity Level,                         !- Name
  0,                                      !- Lower Limit Value
  ,                                       !- Upper Limit Value
  Continuous,                             !- Numeric Type
  ActivityLevel;                          !- Unit Type

OS:ScheduleTypeLimits,
  {421a9384-92ec-4502-a8d9-756c7142416c}, !- Handle
  Fractional,                             !- Name
  0,                                      !- Lower Limit Value
  1,                                      !- Upper Limit Value
  Continuous,                             !- Numeric Type
  Dimensionless;                          !- Unit Type

OS:Schedule:Ruleset,
  {fa52f24b-b01e-48af-8156-5c4d9ed73b17}, !- Handle
  Generic Office Infiltration,            !- Name
  {421a9384-92ec-4502-a8d9-756c7142416c}, !- Schedule Type Limits Name
  {32f249b0-5ce2-4e58-8f91-285fd0be28a1}, !- Default Day Schedule Name
  {d8abfb21-63f9-45bb-9c2b-b246de57ba01}, !- Summer Design Day Schedule Name
  {8d92ffb5-0da6-42e6-b19c-7e8251be5ba9}, !- Winter Design Day Schedule Name
  {492a79f6-c21c-4d18-928a-7bd2bd961bcf}; !- Holiday Schedule Name

OS:Schedule:Day,
  {32f249b0-5ce2-4e58-8f91-285fd0be28a1}, !- Handle
  Schedule Day 1,                         !- Name
  {421a9384-92ec-4502-a8d9-756c7142416c}, !- Schedule Type Limits Name
  ,                                       !- Interpolate to Timestep
  24,                                     !- Hour 1
  0,                                      !- Minute 1
  1;                                      !- Value Until Time 1

OS:Schedule:Day,
  {51908f33-1885-49d8-a097-29aa012e9a2e}, !- Handle
  OfficeMedium INFIL_SCH_PNNL_Default,    !- Name
  {421a9384-92ec-4502-a8d9-756c7142416c}, !- Schedule Type Limits Name
  ,                                       !- Interpolate to Timestep
  24,                                     !- Hour 1
  0,                                      !- Minute 1
  1;                                      !- Value Until Time 1

OS:Schedule:Day,
  {b40c33a4-197c-402e-af1f-0b77f6bd0bbb}, !- Handle
  OfficeMedium INFIL_SCH_PNNL_Wkdy_SmrDsn, !- Name
  {421a9384-92ec-4502-a8d9-756c7142416c}, !- Schedule Type Limits Name
  ,                                       !- Interpolate to Timestep
  6,                                      !- Hour 1
  0,                                      !- Minute 1
  1,                                      !- Value Until Time 1
  22,                                     !- Hour 2
  0,                                      !- Minute 2
  0.25,                                   !- Value Until Time 2
  24,                                     !- Hour 3
  0,                                      !- Minute 3
  1;                                      !- Value Until Time 3

OS:Schedule:Day,
  {b9fab5c9-ea5a-41ac-8c8b-d028782374fa}, !- Handle
  OfficeMedium INFIL_SCH_PNNL_Sat_WntrDsn, !- Name
  {421a9384-92ec-4502-a8d9-756c7142416c}, !- Schedule Type Limits Name
  ,                                       !- Interpolate to Timestep
  6,                                      !- Hour 1
  0,                                      !- Minute 1
  1,                                      !- Value Until Time 1
  18,                                     !- Hour 2
  0,                                      !- Minute 2
  0.25,                                   !- Value Until Time 2
  24,                                     !- Hour 3
  0,                                      !- Minute 3
  1;                                      !- Value Until Time 3

OS:Schedule:Day,
  {c66b6eb7-eb8a-46d6-a9b0-10f3cf9db956}, !- Handle
  OfficeMedium INFIL_SCH_PNNL_Wkdy,       !- Name
  {421a9384-92ec-4502-a8d9-756c7142416c}, !- Schedule Type Limits Name
  ,                                       !- Interpolate to Timestep
  6,                                      !- Hour 1
  0,                                      !- Minute 1
  1,                                      !- Value Until Time 1
  22,                                     !- Hour 2
  0,                                      !- Minute 2
  0.25,                                   !- Value Until Time 2
  24,                                     !- Hour 3
  0,                                      !- Minute 3
  1;                                      !- Value Until Time 3

OS:Schedule:Day,
  {1afbea97-1e6e-4455-8268-d3a48ed72031}, !- Handle
  OfficeMedium INFIL_SCH_PNNL_Sat,        !- Name
  {421a9384-92ec-4502-a8d9-756c7142416c}, !- Schedule Type Limits Name
  ,                                       !- Interpolate to Timestep
  6,                                      !- Hour 1
  0,                                      !- Minute 1
  1,                                      !- Value Until Time 1
  18,                                     !- Hour 2
  0,                                      !- Minute 2
  0.25,                                   !- Value Until Time 2
  24,                                     !- Hour 3
  0,                                      !- Minute 3
  1;                                      !- Value Until Time 3

OS:Schedule:Day,
  {492a79f6-c21c-4d18-928a-7bd2bd961bcf}, !- Handle
  OfficeMedium INFIL_SCH_PNNL_Default 1,  !- Name
  {421a9384-92ec-4502-a8d9-756c7142416c}, !- Schedule Type Limits Name
  ,                                       !- Interpolate to Timestep
  24,                                     !- Hour 1
  0,                                      !- Minute 1
  1;                                      !- Value Until Time 1

OS:Schedule:Day,
  {d8abfb21-63f9-45bb-9c2b-b246de57ba01}, !- Handle
  OfficeMedium INFIL_SCH_PNNL_Wkdy_SmrDsn 1, !- Name
  {421a9384-92ec-4502-a8d9-756c7142416c}, !- Schedule Type Limits Name
  ,                                       !- Interpolate to Timestep
  6,                                      !- Hour 1
  0,                                      !- Minute 1
  1,                                      !- Value Until Time 1
  22,                                     !- Hour 2
  0,                                      !- Minute 2
  0.25,                                   !- Value Until Time 2
  24,                                     !- Hour 3
  0,                                      !- Minute 3
  1;                                      !- Value Until Time 3

OS:Schedule:Day,
  {8d92ffb5-0da6-42e6-b19c-7e8251be5ba9}, !- Handle
  OfficeMedium INFIL_SCH_PNNL_Sat_WntrDsn 1, !- Name
  {421a9384-92ec-4502-a8d9-756c7142416c}, !- Schedule Type Limits Name
  ,                                       !- Interpolate to Timestep
  6,                                      !- Hour 1
  0,                                      !- Minute 1
  1,                                      !- Value Until Time 1
  18,                                     !- Hour 2
  0,                                      !- Minute 2
  0.25,                                   !- Value Until Time 2
  24,                                     !- Hour 3
  0,                                      !- Minute 3
  1;                                      !- Value Until Time 3

OS:Schedule:Rule,
  {c1b20074-e138-4a12-bfbb-3c04e63fe55a}, !- Handle
  Schedule Rule 1,                        !- Name
  {fa52f24b-b01e-48af-8156-5c4d9ed73b17}, !- Schedule Ruleset Name
  0,                                      !- Rule Order
  {54617377-07f2-4b4a-af0f-00fa734a33c7}, !- Day Schedule Name
  No,                                     !- Apply Sunday
  Yes,                                    !- Apply Monday
  Yes,                                    !- Apply Tuesday
  Yes,                                    !- Apply Wednesday
  Yes,                                    !- Apply Thursday
  Yes,                                    !- Apply Friday
  No,                                     !- Apply Saturday
  DateRange,                              !- Date Specification Type
  1,                                      !- Start Month
  1,                                      !- Start Day
  12,                                     !- End Month
  31;                                     !- End Day

OS:Schedule:Day,
  {54617377-07f2-4b4a-af0f-00fa734a33c7}, !- Handle
  Schedule Day 2,                         !- Name
  {421a9384-92ec-4502-a8d9-756c7142416c}, !- Schedule Type Limits Name
  ,                                       !- Interpolate to Timestep
  6,                                      !- Hour 1
  0,                                      !- Minute 1
  1,                                      !- Value Until Time 1
  22,                                     !- Hour 2
  0,                                      !- Minute 2
  0.25,                                   !- Value Until Time 2
  24,                                     !- Hour 3
  0,                                      !- Minute 3
  1;                                      !- Value Until Time 3

OS:YearDescription,
  {f89fe84c-f545-4f54-9a6f-a8c261124527}, !- Handle
  ,                                       !- Calendar Year
  Sunday;                                 !- Day of Week for Start Day

OS:Schedule:Rule,
  {65ed959d-7bd4-4041-884b-1e29e810d284}, !- Handle
  Schedule Rule 2,                        !- Name
  {fa52f24b-b01e-48af-8156-5c4d9ed73b17}, !- Schedule Ruleset Name
  1,                                      !- Rule Order
  {b5ccec31-303f-45ca-801a-50ac12c2c439}, !- Day Schedule Name
  No,                                     !- Apply Sunday
  No,                                     !- Apply Monday
  No,                                     !- Apply Tuesday
  No,                                     !- Apply Wednesday
  No,                                     !- Apply Thursday
  No,                                     !- Apply Friday
  Yes,                                    !- Apply Saturday
  DateRange,                              !- Date Specification Type
  1,                                      !- Start Month
  1,                                      !- Start Day
  12,                                     !- End Month
  31;                                     !- End Day

OS:Schedule:Day,
  {b5ccec31-303f-45ca-801a-50ac12c2c439}, !- Handle
  Schedule Day 3,                         !- Name
  {421a9384-92ec-4502-a8d9-756c7142416c}, !- Schedule Type Limits Name
  ,                                       !- Interpolate to Timestep
  6,                                      !- Hour 1
  0,                                      !- Minute 1
  1,                                      !- Value Until Time 1
  18,                                     !- Hour 2
  0,                                      !- Minute 2
  0.25,                                   !- Value Until Time 2
  24,                                     !- Hour 3
  0,                                      !- Minute 3
  1;                                      !- Value Until Time 3

OS:Schedule:Ruleset,
  {56bd5a9b-b449-48e6-8670-e7bcf6d7d289}, !- Handle
  Generic Office Heating,                 !- Name
  {daa81c67-ade2-49de-8638-c5bc166b5738}, !- Schedule Type Limits Name
  {1457049f-efce-440e-8863-d251c16e3960}, !- Default Day Schedule Name
  {0619abd3-2734-4859-ac2c-2853eb19008f}, !- Summer Design Day Schedule Name
  {a19c7ea4-6116-42fa-b921-41f92b2c3c5f}, !- Winter Design Day Schedule Name
  {5ffb9187-f5ba-4829-9947-4d13f975271d}; !- Holiday Schedule Name

OS:Schedule:Day,
  {1457049f-efce-440e-8863-d251c16e3960}, !- Handle
  Schedule Day 4,                         !- Name
  {daa81c67-ade2-49de-8638-c5bc166b5738}, !- Schedule Type Limits Name
  ,                                       !- Interpolate to Timestep
  24,                                     !- Hour 1
  0,                                      !- Minute 1
  15.6;                                   !- Value Until Time 1

OS:Schedule:Day,
  {659e141f-e6b3-4b92-82fe-318d678c01ea}, !- Handle
  OfficeMedium HTGSETP_SCH_YES_OPTIMUM_Default, !- Name
  {daa81c67-ade2-49de-8638-c5bc166b5738}, !- Schedule Type Limits Name
  ,                                       !- Interpolate to Timestep
  24,                                     !- Hour 1
  0,                                      !- Minute 1
  15.6;                                   !- Value Until Time 1

OS:Schedule:Day,
  {040e7277-816b-43ac-b5d7-7835378eeec7}, !- Handle
  OfficeMedium HTGSETP_SCH_YES_OPTIMUM_Default_SmrDsn, !- Name
  {daa81c67-ade2-49de-8638-c5bc166b5738}, !- Schedule Type Limits Name
  ,                                       !- Interpolate to Timestep
  24,                                     !- Hour 1
  0,                                      !- Minute 1
  15.6;                                   !- Value Until Time 1

OS:Schedule:Day,
  {82e061a8-a667-4b0e-8392-536507e65ca8}, !- Handle
  OfficeMedium HTGSETP_SCH_YES_OPTIMUM_WntrDsn, !- Name
  {daa81c67-ade2-49de-8638-c5bc166b5738}, !- Schedule Type Limits Name
  ,                                       !- Interpolate to Timestep
  5,                                      !- Hour 1
  0,                                      !- Minute 1
  15.6,                                   !- Value Until Time 1
  6,                                      !- Hour 2
  0,                                      !- Minute 2
  17.6,                                   !- Value Until Time 2
  7,                                      !- Hour 3
  0,                                      !- Minute 3
  19.6,                                   !- Value Until Time 3
  22,                                     !- Hour 4
  0,                                      !- Minute 4
  21,                                     !- Value Until Time 4
  24,                                     !- Hour 5
  0,                                      !- Minute 5
  15.6;                                   !- Value Until Time 5

OS:Schedule:Day,
  {5a1e8d6f-a254-4b73-be6d-179bcf4f9179}, !- Handle
  OfficeMedium HTGSETP_SCH_YES_OPTIMUM_Wkdy, !- Name
  {daa81c67-ade2-49de-8638-c5bc166b5738}, !- Schedule Type Limits Name
  ,                                       !- Interpolate to Timestep
  5,                                      !- Hour 1
  0,                                      !- Minute 1
  15.6,                                   !- Value Until Time 1
  6,                                      !- Hour 2
  0,                                      !- Minute 2
  17.8,                                   !- Value Until Time 2
  7,                                      !- Hour 3
  0,                                      !- Minute 3
  20,                                     !- Value Until Time 3
  22,                                     !- Hour 4
  0,                                      !- Minute 4
  21,                                     !- Value Until Time 4
  24,                                     !- Hour 5
  0,                                      !- Minute 5
  15.6;                                   !- Value Until Time 5

OS:Schedule:Day,
  {e1fc0227-fc7d-49b2-bf31-267dc9adbce4}, !- Handle
  OfficeMedium HTGSETP_SCH_YES_OPTIMUM_Sat, !- Name
  {daa81c67-ade2-49de-8638-c5bc166b5738}, !- Schedule Type Limits Name
  ,                                       !- Interpolate to Timestep
  5,                                      !- Hour 1
  0,                                      !- Minute 1
  15.6,                                   !- Value Until Time 1
  6,                                      !- Hour 2
  0,                                      !- Minute 2
  17.8,                                   !- Value Until Time 2
  7,                                      !- Hour 3
  0,                                      !- Minute 3
  20,                                     !- Value Until Time 3
  17,                                     !- Hour 4
  0,                                      !- Minute 4
  21,                                     !- Value Until Time 4
  24,                                     !- Hour 5
  0,                                      !- Minute 5
  15.6;                                   !- Value Until Time 5

OS:Schedule:Day,
  {5ffb9187-f5ba-4829-9947-4d13f975271d}, !- Handle
  OfficeMedium HTGSETP_SCH_YES_OPTIMUM_Default 1, !- Name
  {daa81c67-ade2-49de-8638-c5bc166b5738}, !- Schedule Type Limits Name
  ,                                       !- Interpolate to Timestep
  24,                                     !- Hour 1
  0,                                      !- Minute 1
  15.6;                                   !- Value Until Time 1

OS:Schedule:Day,
  {0619abd3-2734-4859-ac2c-2853eb19008f}, !- Handle
  OfficeMedium HTGSETP_SCH_YES_OPTIMUM_Default_SmrDsn 1, !- Name
  {daa81c67-ade2-49de-8638-c5bc166b5738}, !- Schedule Type Limits Name
  ,                                       !- Interpolate to Timestep
  24,                                     !- Hour 1
  0,                                      !- Minute 1
  15.6;                                   !- Value Until Time 1

OS:Schedule:Day,
  {a19c7ea4-6116-42fa-b921-41f92b2c3c5f}, !- Handle
  OfficeMedium HTGSETP_SCH_YES_OPTIMUM_WntrDsn 1, !- Name
  {daa81c67-ade2-49de-8638-c5bc166b5738}, !- Schedule Type Limits Name
  ,                                       !- Interpolate to Timestep
  5,                                      !- Hour 1
  0,                                      !- Minute 1
  15.6,                                   !- Value Until Time 1
  6,                                      !- Hour 2
  0,                                      !- Minute 2
  17.6,                                   !- Value Until Time 2
  7,                                      !- Hour 3
  0,                                      !- Minute 3
  19.6,                                   !- Value Until Time 3
  22,                                     !- Hour 4
  0,                                      !- Minute 4
  21,                                     !- Value Until Time 4
  24,                                     !- Hour 5
  0,                                      !- Minute 5
  15.6;                                   !- Value Until Time 5

OS:Schedule:Rule,
  {e7b608ce-7134-4f46-b2f9-6428ecf53d80}, !- Handle
  Schedule Rule 3,                        !- Name
  {56bd5a9b-b449-48e6-8670-e7bcf6d7d289}, !- Schedule Ruleset Name
  0,                                      !- Rule Order
  {01275390-e5ef-4102-97eb-2da34a00af0a}, !- Day Schedule Name
  No,                                     !- Apply Sunday
  Yes,                                    !- Apply Monday
  Yes,                                    !- Apply Tuesday
  Yes,                                    !- Apply Wednesday
  Yes,                                    !- Apply Thursday
  Yes,                                    !- Apply Friday
  No,                                     !- Apply Saturday
  DateRange,                              !- Date Specification Type
  1,                                      !- Start Month
  1,                                      !- Start Day
  12,                                     !- End Month
  31;                                     !- End Day

OS:Schedule:Day,
  {01275390-e5ef-4102-97eb-2da34a00af0a}, !- Handle
  Schedule Day 5,                         !- Name
  {daa81c67-ade2-49de-8638-c5bc166b5738}, !- Schedule Type Limits Name
  ,                                       !- Interpolate to Timestep
  5,                                      !- Hour 1
  0,                                      !- Minute 1
  15.6,                                   !- Value Until Time 1
  6,                                      !- Hour 2
  0,                                      !- Minute 2
  17.8,                                   !- Value Until Time 2
  7,                                      !- Hour 3
  0,                                      !- Minute 3
  20,                                     !- Value Until Time 3
  22,                                     !- Hour 4
  0,                                      !- Minute 4
  21,                                     !- Value Until Time 4
  24,                                     !- Hour 5
  0,                                      !- Minute 5
  15.6;                                   !- Value Until Time 5

OS:Schedule:Rule,
  {17c701bb-ab5e-4ddf-a21e-182ee7e22735}, !- Handle
  Schedule Rule 4,                        !- Name
  {56bd5a9b-b449-48e6-8670-e7bcf6d7d289}, !- Schedule Ruleset Name
  1,                                      !- Rule Order
  {f4863954-62a6-4cb3-9cbd-c747dd38d8ce}, !- Day Schedule Name
  No,                                     !- Apply Sunday
  No,                                     !- Apply Monday
  No,                                     !- Apply Tuesday
  No,                                     !- Apply Wednesday
  No,                                     !- Apply Thursday
  No,                                     !- Apply Friday
  Yes,                                    !- Apply Saturday
  DateRange,                              !- Date Specification Type
  1,                                      !- Start Month
  1,                                      !- Start Day
  12,                                     !- End Month
  31;                                     !- End Day

OS:Schedule:Day,
  {f4863954-62a6-4cb3-9cbd-c747dd38d8ce}, !- Handle
  Schedule Day 6,                         !- Name
  {daa81c67-ade2-49de-8638-c5bc166b5738}, !- Schedule Type Limits Name
  ,                                       !- Interpolate to Timestep
  5,                                      !- Hour 1
  0,                                      !- Minute 1
  15.6,                                   !- Value Until Time 1
  6,                                      !- Hour 2
  0,                                      !- Minute 2
  17.8,                                   !- Value Until Time 2
  7,                                      !- Hour 3
  0,                                      !- Minute 3
  20,                                     !- Value Until Time 3
  17,                                     !- Hour 4
  0,                                      !- Minute 4
  21,                                     !- Value Until Time 4
  24,                                     !- Hour 5
  0,                                      !- Minute 5
  15.6;                                   !- Value Until Time 5

OS:Schedule:Ruleset,
  {b7561711-8330-4b91-9200-bb997ffd6545}, !- Handle
  Generic Office Equipment,               !- Name
  {421a9384-92ec-4502-a8d9-756c7142416c}, !- Schedule Type Limits Name
  {c07d6722-23b0-4470-bbaf-c0e27eb81773}, !- Default Day Schedule Name
  {862352ca-cbbb-498a-b641-23708b1f72e8}, !- Summer Design Day Schedule Name
  {c255e338-a81b-494b-bf6f-f93a468af325}, !- Winter Design Day Schedule Name
  {25bedba1-45a6-4b5e-b1ca-a8e5c42bbdd5}; !- Holiday Schedule Name

OS:Schedule:Day,
  {c07d6722-23b0-4470-bbaf-c0e27eb81773}, !- Handle
  Schedule Day 7,                         !- Name
  {421a9384-92ec-4502-a8d9-756c7142416c}, !- Schedule Type Limits Name
  ,                                       !- Interpolate to Timestep