
OS:Version,
  {9feb7f4c-acba-43a6-b41e-6438b10cfb1f}, !- Handle
  3.0.1;                                  !- Version Identifier

OS:Building,
  {9401ad03-34dc-4ef3-9c03-7cace1d13048}, !- Handle
  Building 1,                             !- Name
  ,                                       !- Building Sector Type
  -0,                                     !- North Axis {deg}
  ,                                       !- Nominal Floor to Floor Height {m}
  ,                                       !- Space Type Name
  {22df109b-801f-4410-9e3b-9d3a9d6d0356}, !- Default Construction Set Name
  ,                                       !- Default Schedule Set Name
  ,                                       !- Standards Number of Stories
  ,                                       !- Standards Number of Above Ground Stories
  ,                                       !- Standards Template
  MediumOffice;                           !- Standards Building Type

OS:Facility,
  {c85650bc-7b39-40c0-baf6-620b05c18729}; !- Handle

OS:Site,
  {5094e0e3-ea06-4dc5-a277-9aad56c691e0}, !- Handle
  Site 1,                                 !- Name
  ,                                       !- Latitude {deg}
  ,                                       !- Longitude {deg}
  ,                                       !- Time Zone {hr}
  ,                                       !- Elevation {m}
  City;                                   !- Terrain

OS:SimulationControl,
  {e7e7b5c9-da51-4ebd-aa08-69f8dbddb127}, !- Handle
  Yes,                                    !- Do Zone Sizing Calculation
  Yes,                                    !- Do System Sizing Calculation
  Yes,                                    !- Do Plant Sizing Calculation
  No,                                     !- Run Simulation for Sizing Periods
  Yes,                                    !- Run Simulation for Weather File Run Periods
  ,                                       !- Loads Convergence Tolerance Value {W}
  ,                                       !- Temperature Convergence Tolerance Value {deltaC}
  FullExteriorWithReflections;            !- Solar Distribution

OS:Sizing:Parameters,
  {e5b5b20f-d4c7-43d1-97ef-c19c970c8736}, !- Handle
  1.25,                                   !- Heating Sizing Factor
  1.15;                                   !- Cooling Sizing Factor

OS:Timestep,
  {169e4e3a-8f24-4f46-bc1c-5e505df90775}, !- Handle
  6;                                      !- Number of Timesteps per Hour

OS:ShadowCalculation,
  {b12a4d9f-484b-4131-b8d6-b2ca76825f11}, !- Handle
  PolygonClipping,                        !- Shading Calculation Method
  Periodic,                               !- Shading Calculation Update Frequency Method
  30,                                     !- Shading Calculation Update Frequency
  15000,                                  !- Maximum Figures in Shadow Overlap Calculations
  ,                                       !- Polygon Clipping Algorithm
  512,                                    !- Pixel Counting Resolution
  ,                                       !- Sky Diffuse Modeling Algorithm
  No,                                     !- Output External Shading Calculation Results
  No,                                     !- Disable Self-Shading Within Shading Zone Groups
  No;                                     !- Disable Self-Shading From Shading Zone Groups to Other Zones

OS:HeatBalanceAlgorithm,
  {904a8015-e8be-4b6a-b0ed-3ce380f5bc2d}, !- Handle
  ConductionTransferFunction,             !- Algorithm
  200;                                    !- Surface Temperature Upper Limit {C}

OS:RunPeriod,
  {98863bc0-458a-46ef-ba57-e92ce358ea6a}, !- Handle
  Run Period 1,                           !- Name
  1,                                      !- Begin Month
  1,                                      !- Begin Day of Month
  1,                                      !- End Month
  31,                                     !- End Day of Month
  ,                                       !- Use Weather File Holidays and Special Days
  ,                                       !- Use Weather File Daylight Saving Period
  ,                                       !- Apply Weekend Holiday Rule
  ,                                       !- Use Weather File Rain Indicators
  ,                                       !- Use Weather File Snow Indicators
  ;                                       !- Number of Times Runperiod to be Repeated

OS:LifeCycleCost:Parameters,
  {9e7370aa-3599-4109-9a0e-628e587840de}, !- Handle
  ,                                       !- Analysis Type
  ,                                       !- Discounting Convention
  ,                                       !- Inflation Approach
  ,                                       !- Real Discount Rate
  ,                                       !- Nominal Discount Rate
  ,                                       !- Inflation
  ,                                       !- Base Date Month
  ,                                       !- Base Date Year
  ,                                       !- Service Date Month
  ,                                       !- Service Date Year
  ;                                       !- Length of Study Period in Years

OS:WeatherFile,
  {1b059f72-19ac-432c-aeb9-3ec3ac5e9324}, !- Handle
  Boston Logan IntL Arpt,                 !- City
  MA,                                     !- State Province Region
  USA,                                    !- Country
  TMY3,                                   !- Data Source
  725090,                                 !- WMO Number
  42.37,                                  !- Latitude {deg}
  -71.02,                                 !- Longitude {deg}
  -5,                                     !- Time Zone {hr}
  6,                                      !- Elevation {m}
  C:/Users/Administrator/ladybug_tools/resources/weather/USA_MA_Boston-Logan.Intl.AP.725090_TMY3/USA_MA_Boston-Logan.Intl.AP.725090_TMY3.epw, !- Url
  B65824C3;                               !- Checksum

OS:ScheduleTypeLimits,
  {f6d40c0d-a9f3-47c3-b7cf-d3c7cac68474}, !- Handle
  Temperature,                            !- Name
  -273.15,                                !- Lower Limit Value
  ,                                       !- Upper Limit Value
  Continuous,                             !- Numeric Type
  Temperature;                            !- Unit Type

OS:ScheduleTypeLimits,
  {4e474829-cea4-472f-975b-d60b70a6188f}, !- Handle
  Activity Level,                         !- Name
  0,                                      !- Lower Limit Value
  ,                                       !- Upper Limit Value
  Continuous,                             !- Numeric Type
  ActivityLevel;                          !- Unit Type

OS:ScheduleTypeLimits,
  {db40c640-fad1-4b6c-b81e-89c68dac7313}, !- Handle
  Fractional,                             !- Name
  0,                                      !- Lower Limit Value
  1,                                      !- Upper Limit Value
  Continuous,                             !- Numeric Type
  Dimensionless;                          !- Unit Type

OS:Schedule:Ruleset,
  {002cde2b-d5bc-45fe-a2b6-73183f9e699c}, !- Handle
  Generic Office Infiltration,            !- Name
  {db40c640-fad1-4b6c-b81e-89c68dac7313}, !- Schedule Type Limits Name
  {479a54c8-72a1-4e8e-95ab-8639dee7ee7d}, !- Default Day Schedule Name
  {e3b0cb6c-020f-4472-b254-6f4e505565c2}, !- Summer Design Day Schedule Name
  {83c69233-08a9-4267-a411-07a03611ba2b}, !- Winter Design Day Schedule Name
  {eb0ecf36-d2c4-4961-ad57-44abbe794694}; !- Holiday Schedule Name

OS:Schedule:Day,
  {479a54c8-72a1-4e8e-95ab-8639dee7ee7d}, !- Handle
  Schedule Day 1,                         !- Name
  {db40c640-fad1-4b6c-b81e-89c68dac7313}, !- Schedule Type Limits Name
  ,                                       !- Interpolate to Timestep
  24,                                     !- Hour 1
  0,                                      !- Minute 1
  1;                                      !- Value Until Time 1

OS:Schedule:Day,
  {4cd14d1e-2c54-412d-b359-b921746deb89}, !- Handle
  OfficeMedium INFIL_SCH_PNNL_Default,    !- Name
  {db40c640-fad1-4b6c-b81e-89c68dac7313}, !- Schedule Type Limits Name
  ,                                       !- Interpolate to Timestep
  24,                                     !- Hour 1
  0,                                      !- Minute 1
  1;                                      !- Value Until Time 1

OS:Schedule:Day,
  {ae84ae71-ed0e-4d4e-87f7-0cf7104b4b09}, !- Handle
  OfficeMedium INFIL_SCH_PNNL_Wkdy_SmrDsn, !- Name
  {db40c640-fad1-4b6c-b81e-89c68dac7313}, !- Schedule Type Limits Name
  ,                                       !- Interpolate to Timestep
  6,                                      !- Hour 1
  0,                                      !- Minute 1
  1,                                      !- Value Until Time 1
  22,                                     !- Hour 2
  0,                                      !- Minute 2
  0.25,                                   !- Value Until Time 2
  24,                                     !- Hour 3
  0,                                      !- Minute 3
  1;                                      !- Value Until Time 3

OS:Schedule:Day,
  {f14164ab-2a26-4d32-80e8-dc22e4a9f01c}, !- Handle
  OfficeMedium INFIL_SCH_PNNL_Sat_WntrDsn, !- Name
  {db40c640-fad1-4b6c-b81e-89c68dac7313}, !- Schedule Type Limits Name
  ,                                       !- Interpolate to Timestep
  6,                                      !- Hour 1
  0,                                      !- Minute 1
  1,                                      !- Value Until Time 1
  18,                                     !- Hour 2
  0,                                      !- Minute 2
  0.25,                                   !- Value Until Time 2
  24,                                     !- Hour 3
  0,                                      !- Minute 3
  1;                                      !- Value Until Time 3

OS:Schedule:Day,
  {d95870bc-6520-4249-a932-bf84b2f03570}, !- Handle
  OfficeMedium INFIL_SCH_PNNL_Wkdy,       !- Name
  {db40c640-fad1-4b6c-b81e-89c68dac7313}, !- Schedule Type Limits Name
  ,                                       !- Interpolate to Timestep
  6,                                      !- Hour 1
  0,                                      !- Minute 1
  1,                                      !- Value Until Time 1
  22,                                     !- Hour 2
  0,                                      !- Minute 2
  0.25,                                   !- Value Until Time 2
  24,                                     !- Hour 3
  0,                                      !- Minute 3
  1;                                      !- Value Until Time 3

OS:Schedule:Day,
  {29461a75-cbc2-4770-92dc-e1306cee6741}, !- Handle
  OfficeMedium INFIL_SCH_PNNL_Sat,        !- Name
  {db40c640-fad1-4b6c-b81e-89c68dac7313}, !- Schedule Type Limits Name
  ,                                       !- Interpolate to Timestep
  6,                                      !- Hour 1
  0,                                      !- Minute 1
  1,                                      !- Value Until Time 1
  18,                                     !- Hour 2
  0,                                      !- Minute 2
  0.25,                                   !- Value Until Time 2
  24,                                     !- Hour 3
  0,                                      !- Minute 3
  1;                                      !- Value Until Time 3

OS:Schedule:Day,
  {eb0ecf36-d2c4-4961-ad57-44abbe794694}, !- Handle
  OfficeMedium INFIL_SCH_PNNL_Default 1,  !- Name
  {db40c640-fad1-4b6c-b81e-89c68dac7313}, !- Schedule Type Limits Name
  ,                                       !- Interpolate to Timestep
  24,                                     !- Hour 1
  0,                                      !- Minute 1
  1;                                      !- Value Until Time 1

OS:Schedule:Day,
  {e3b0cb6c-020f-4472-b254-6f4e505565c2}, !- Handle
  OfficeMedium INFIL_SCH_PNNL_Wkdy_SmrDsn 1, !- Name
  {db40c640-fad1-4b6c-b81e-89c68dac7313}, !- Schedule Type Limits Name
  ,                                       !- Interpolate to Timestep
  6,                                      !- Hour 1
  0,                                      !- Minute 1
  1,                                      !- Value Until Time 1
  22,                                     !- Hour 2
  0,                                      !- Minute 2
  0.25,                                   !- Value Until Time 2
  24,                                     !- Hour 3
  0,                                      !- Minute 3
  1;                                      !- Value Until Time 3

OS:Schedule:Day,
  {83c69233-08a9-4267-a411-07a03611ba2b}, !- Handle
  OfficeMedium INFIL_SCH_PNNL_Sat_WntrDsn 1, !- Name
  {db40c640-fad1-4b6c-b81e-89c68dac7313}, !- Schedule Type Limits Name
  ,                                       !- Interpolate to Timestep
  6,                                      !- Hour 1
  0,                                      !- Minute 1
  1,                                      !- Value Until Time 1
  18,                                     !- Hour 2
  0,                                      !- Minute 2
  0.25,                                   !- Value Until Time 2
  24,                                     !- Hour 3
  0,                                      !- Minute 3
  1;                                      !- Value Until Time 3

OS:Schedule:Rule,
  {9fb60ecf-0409-49f6-8510-a87e2cb982ba}, !- Handle
  Schedule Rule 1,                        !- Name
  {002cde2b-d5bc-45fe-a2b6-73183f9e699c}, !- Schedule Ruleset Name
  0,                                      !- Rule Order
  {2ee65bec-5b06-41b3-a434-345b40e169a5}, !- Day Schedule Name
  No,                                     !- Apply Sunday
  Yes,                                    !- Apply Monday
  Yes,                                    !- Apply Tuesday
  Yes,                                    !- Apply Wednesday
  Yes,                                    !- Apply Thursday
  Yes,                                    !- Apply Friday
  No,                                     !- Apply Saturday
  DateRange,                              !- Date Specification Type
  1,                                      !- Start Month
  1,                                      !- Start Day
  12,                                     !- End Month
  31;                                     !- End Day

OS:Schedule:Day,
  {2ee65bec-5b06-41b3-a434-345b40e169a5}, !- Handle
  Schedule Day 2,                         !- Name
  {db40c640-fad1-4b6c-b81e-89c68dac7313}, !- Schedule Type Limits Name
  ,                                       !- Interpolate to Timestep
  6,                                      !- Hour 1
  0,                                      !- Minute 1
  1,                                      !- Value Until Time 1
  22,                                     !- Hour 2
  0,                                      !- Minute 2
  0.25,                                   !- Value Until Time 2
  24,                                     !- Hour 3
  0,                                      !- Minute 3
  1;                                      !- Value Until Time 3

OS:YearDescription,
  {8f0d361c-a8f6-49c3-8ffc-a86eab91c613}, !- Handle
  ,                                       !- Calendar Year
  Sunday;                                 !- Day of Week for Start Day

OS:Schedule:Rule,
  {8e8a64eb-4f21-415c-a260-0e55efba4024}, !- Handle
  Schedule Rule 2,                        !- Name
  {002cde2b-d5bc-45fe-a2b6-73183f9e699c}, !- Schedule Ruleset Name
  1,                                      !- Rule Order
  {273a8515-f8cb-4126-994b-7e75aed7421c}, !- Day Schedule Name
  No,                                     !- Apply Sunday
  No,                                     !- Apply Monday
  No,                                     !- Apply Tuesday
  No,                                     !- Apply Wednesday
  No,                                     !- Apply Thursday
  No,                                     !- Apply Friday
  Yes,                                    !- Apply Saturday
  DateRange,                              !- Date Specification Type
  1,                                      !- Start Month
  1,                                      !- Start Day
  12,                                     !- End Month
  31;                                     !- End Day

OS:Schedule:Day,
  {273a8515-f8cb-4126-994b-7e75aed7421c}, !- Handle
  Schedule Day 3,                         !- Name
  {db40c640-fad1-4b6c-b81e-89c68dac7313}, !- Schedule Type Limits Name
  ,                                       !- Interpolate to Timestep
  6,                                      !- Hour 1
  0,                                      !- Minute 1
  1,                                      !- Value Until Time 1
  18,                                     !- Hour 2
  0,                                      !- Minute 2
  0.25,                                   !- Value Until Time 2
  24,                                     !- Hour 3
  0,                                      !- Minute 3
  1;                                      !- Value Until Time 3

OS:Schedule:Ruleset,
  {51c83e9f-0624-4108-b78e-bac168feeef8}, !- Handle
  Generic Office Heating,                 !- Name
  {f6d40c0d-a9f3-47c3-b7cf-d3c7cac68474}, !- Schedule Type Limits Name
  {c23cd54e-805d-4f48-b06e-9aa87e7403de}, !- Default Day Schedule Name
  {5b9e5c0a-930a-454a-b440-a8810e7c8882}, !- Summer Design Day Schedule Name
  {cf474ce2-4447-49bc-b13e-e8396c5c5c4b}, !- Winter Design Day Schedule Name
  {321d2254-33fb-4c4d-a28d-c729831ab39c}; !- Holiday Schedule Name

OS:Schedule:Day,
  {c23cd54e-805d-4f48-b06e-9aa87e7403de}, !- Handle
  Schedule Day 4,                         !- Name
  {f6d40c0d-a9f3-47c3-b7cf-d3c7cac68474}, !- Schedule Type Limits Name
  ,                                       !- Interpolate to Timestep
  24,                                     !- Hour 1
  0,                                      !- Minute 1
  15.6;                                   !- Value Until Time 1

OS:Schedule:Day,
  {82d23843-2873-4fed-af94-6588f3cadaf0}, !- Handle
  OfficeMedium HTGSETP_SCH_YES_OPTIMUM_Default, !- Name
  {f6d40c0d-a9f3-47c3-b7cf-d3c7cac68474}, !- Schedule Type Limits Name
  ,                                       !- Interpolate to Timestep
  24,                                     !- Hour 1
  0,                                      !- Minute 1
  15.6;                                   !- Value Until Time 1

OS:Schedule:Day,
  {06f2b421-b87f-4f87-9631-f5246a3c081e}, !- Handle
  OfficeMedium HTGSETP_SCH_YES_OPTIMUM_Default_SmrDsn, !- Name
  {f6d40c0d-a9f3-47c3-b7cf-d3c7cac68474}, !- Schedule Type Limits Name
  ,                                       !- Interpolate to Timestep
  24,                                     !- Hour 1
  0,                                      !- Minute 1
  15.6;                                   !- Value Until Time 1

OS:Schedule:Day,
  {da94528b-88c0-49fa-9b92-a27c711fb37a}, !- Handle
  OfficeMedium HTGSETP_SCH_YES_OPTIMUM_WntrDsn, !- Name
  {f6d40c0d-a9f3-47c3-b7cf-d3c7cac68474}, !- Schedule Type Limits Name
  ,                                       !- Interpolate to Timestep
  5,                                      !- Hour 1
  0,                                      !- Minute 1
  15.6,                                   !- Value Until Time 1
  6,                                      !- Hour 2
  0,                                      !- Minute 2
  17.6,                                   !- Value Until Time 2
  7,                                      !- Hour 3
  0,                                      !- Minute 3
  19.6,                                   !- Value Until Time 3
  22,                                     !- Hour 4
  0,                                      !- Minute 4
  21,                                     !- Value Until Time 4
  24,                                     !- Hour 5
  0,                                      !- Minute 5
  15.6;                                   !- Value Until Time 5

OS:Schedule:Day,
  {bb95ba7f-7bda-43ab-b5f0-28b9206c0cc1}, !- Handle
  OfficeMedium HTGSETP_SCH_YES_OPTIMUM_Wkdy, !- Name
  {f6d40c0d-a9f3-47c3-b7cf-d3c7cac68474}, !- Schedule Type Limits Name
  ,                                       !- Interpolate to Timestep
  5,                                      !- Hour 1
  0,                                      !- Minute 1
  15.6,                                   !- Value Until Time 1
  6,                                      !- Hour 2
  0,                                      !- Minute 2
  17.8,                                   !- Value Until Time 2
  7,                                      !- Hour 3
  0,                                      !- Minute 3
  20,                                     !- Value Until Time 3
  22,                                     !- Hour 4
  0,                                      !- Minute 4
  21,                                     !- Value Until Time 4
  24,                                     !- Hour 5
  0,                                      !- Minute 5
  15.6;                                   !- Value Until Time 5

OS:Schedule:Day,
  {2a678a01-e42d-4f4a-853c-42536b95f7d1}, !- Handle
  OfficeMedium HTGSETP_SCH_YES_OPTIMUM_Sat, !- Name
  {f6d40c0d-a9f3-47c3-b7cf-d3c7cac68474}, !- Schedule Type Limits Name
  ,                                       !- Interpolate to Timestep
  5,                                      !- Hour 1
  0,                                      !- Minute 1
  15.6,                                   !- Value Until Time 1
  6,                                      !- Hour 2
  0,                                      !- Minute 2
  17.8,                                   !- Value Until Time 2
  7,                                      !- Hour 3
  0,                                      !- Minute 3
  20,                                     !- Value Until Time 3
  17,                                     !- Hour 4
  0,                                      !- Minute 4
  21,                                     !- Value Until Time 4
  24,                                     !- Hour 5
  0,                                      !- Minute 5
  15.6;                                   !- Value Until Time 5

OS:Schedule:Day,
  {321d2254-33fb-4c4d-a28d-c729831ab39c}, !- Handle
  OfficeMedium HTGSETP_SCH_YES_OPTIMUM_Default 1, !- Name
  {f6d40c0d-a9f3-47c3-b7cf-d3c7cac68474}, !- Schedule Type Limits Name
  ,                                       !- Interpolate to Timestep
  24,                                     !- Hour 1
  0,                                      !- Minute 1
  15.6;                                   !- Value Until Time 1

OS:Schedule:Day,
  {5b9e5c0a-930a-454a-b440-a8810e7c8882}, !- Handle
  OfficeMedium HTGSETP_SCH_YES_OPTIMUM_Default_SmrDsn 1, !- Name
  {f6d40c0d-a9f3-47c3-b7cf-d3c7cac68474}, !- Schedule Type Limits Name
  ,                                       !- Interpolate to Timestep
  24,                                     !- Hour 1
  0,                                      !- Minute 1
  15.6;                                   !- Value Until Time 1

OS:Schedule:Day,
  {cf474ce2-4447-49bc-b13e-e8396c5c5c4b}, !- Handle
  OfficeMedium HTGSETP_SCH_YES_OPTIMUM_WntrDsn 1, !- Name
  {f6d40c0d-a9f3-47c3-b7cf-d3c7cac68474}, !- Schedule Type Limits Name
  ,                                       !- Interpolate to Timestep
  5,                                      !- Hour 1
  0,                                      !- Minute 1
  15.6,                                   !- Value Until Time 1
  6,                                      !- Hour 2
  0,                                      !- Minute 2
  17.6,                                   !- Value Until Time 2
  7,                                      !- Hour 3
  0,                                      !- Minute 3
  19.6,                                   !- Value Until Time 3
  22,                                     !- Hour 4
  0,                                      !- Minute 4
  21,                                     !- Value Until Time 4
  24,                                     !- Hour 5
  0,                                      !- Minute 5
  15.6;                                   !- Value Until Time 5

OS:Schedule:Rule,
  {c0f96779-df8a-4db8-bba2-757ec5c100a3}, !- Handle
  Schedule Rule 3,                        !- Name
  {51c83e9f-0624-4108-b78e-bac168feeef8}, !- Schedule Ruleset Name
  0,                                      !- Rule Order
  {07d1373d-d7a3-4f51-bed2-dcd06394ef2f}, !- Day Schedule Name
  No,                                     !- Apply Sunday
  Yes,                                    !- Apply Monday
  Yes,                                    !- Apply Tuesday
  Yes,                                    !- Apply Wednesday
  Yes,                                    !- Apply Thursday
  Yes,                                    !- Apply Friday
  No,                                     !- Apply Saturday
  DateRange,                              !- Date Specification Type
  1,                                      !- Start Month
  1,                                      !- Start Day
  12,                                     !- End Month
  31;                                     !- End Day

OS:Schedule:Day,
  {07d1373d-d7a3-4f51-bed2-dcd06394ef2f}, !- Handle
  Schedule Day 5,                         !- Name
  {f6d40c0d-a9f3-47c3-b7cf-d3c7cac68474}, !- Schedule Type Limits Name
  ,                                       !- Interpolate to Timestep
  5,                                      !- Hour 1
  0,                                      !- Minute 1
  15.6,                                   !- Value Until Time 1
  6,                                      !- Hour 2
  0,                                      !- Minute 2
  17.8,                                   !- Value Until Time 2
  7,                                      !- Hour 3
  0,                                      !- Minute 3
  20,                                     !- Value Until Time 3
  22,                                     !- Hour 4
  0,                                      !- Minute 4
  21,                                     !- Value Until Time 4
  24,                                     !- Hour 5
  0,                                      !- Minute 5
  15.6;                                   !- Value Until Time 5

OS:Schedule:Rule,
  {461ec96a-0013-42df-9814-726126d5175b}, !- Handle
  Schedule Rule 4,                        !- Name
  {51c83e9f-0624-4108-b78e-bac168feeef8}, !- Schedule Ruleset Name
  1,                                      !- Rule Order
  {e594f446-c70e-4583-9017-36f556444dde}, !- Day Schedule Name
  No,                                     !- Apply Sunday
  No,                                     !- Apply Monday
  No,                                     !- Apply Tuesday
  No,                                     !- Apply Wednesday
  No,                                     !- Apply Thursday
  No,                                     !- Apply Friday
  Yes,                                    !- Apply Saturday
  DateRange,                              !- Date Specification Type
  1,                                      !- Start Month
  1,                                      !- Start Day
  12,                                     !- End Month
  31;                                     !- End Day

OS:Schedule:Day,
  {e594f446-c70e-4583-9017-36f556444dde}, !- Handle
  Schedule Day 6,                         !- Name
  {f6d40c0d-a9f3-47c3-b7cf-d3c7cac68474}, !- Schedule Type Limits Name
  ,                                       !- Interpolate to Timestep
  5,                                      !- Hour 1
  0,                                      !- Minute 1
  15.6,                                   !- Value Until Time 1
  6,                                      !- Hour 2
  0,                                      !- Minute 2
  17.8,                                   !- Value Until Time 2
  7,                                      !- Hour 3
  0,                                      !- Minute 3
  20,                                     !- Value Until Time 3
  17,                                     !- Hour 4
  0,                                      !- Minute 4
  21,                                     !- Value Until Time 4
  24,                                     !- Hour 5
  0,                                      !- Minute 5
  15.6;                                   !- Value Until Time 5

OS:Schedule:Ruleset,
  {cc8f282d-038f-4845-8b3a-20d1fe922dda}, !- Handle
  Generic Office Equipment,               !- Name
  {db40c640-fad1-4b6c-b81e-89c68dac7313}, !- Schedule Type Limits Name
  {e5db82bb-fe79-4d39-8c33-e19dd2f684d3}, !- Default Day Schedule Name
  {a7ab8de5-5001-4a9c-af7c-d07129af88d1}, !- Summer Design Day Schedule Name
  {33b7d9b5-149d-4331-8492-6f1683189f2a}, !- Winter Design Day Schedule Name
  {f0e58213-94b6-47b9-95b1-436dab063ec2}; !- Holiday Schedule Name

OS:Schedule:Day,
  {e5db82bb-fe79-4d39-8c33-e19dd2f684d3}, !- Handle
  Schedule Day 7,                         !- Name
  {db40c640-fad1-4b6c-b81e-89c68dac7313}, !- Schedule Type Limits Name
  ,                                       !- Interpolate to Timestep