
OS:Version,
  {bc09ec1e-4485-4d14-afc6-568914376c72}, !- Handle
  3.0.1;                                  !- Version Identifier

OS:Building,
  {2d5fb8ce-113e-4a5d-8407-01bb2d798999}, !- Handle
  Building 1,                             !- Name
  ,                                       !- Building Sector Type
  -0,                                     !- North Axis {deg}
  ,                                       !- Nominal Floor to Floor Height {m}
  ,                                       !- Space Type Name
  {3d9bac6e-19df-4b27-b986-3929b9cb0681}, !- Default Construction Set Name
  ,                                       !- Default Schedule Set Name
  ,                                       !- Standards Number of Stories
  ,                                       !- Standards Number of Above Ground Stories
  ,                                       !- Standards Template
  MediumOffice;                           !- Standards Building Type

OS:Facility,
  {8c724ef0-d30f-4333-804d-01633a6806bc}; !- Handle

OS:Site,
  {4fac5a67-e079-4f7b-a2fe-09970d91eac1}, !- Handle
  Site 1,                                 !- Name
  ,                                       !- Latitude {deg}
  ,                                       !- Longitude {deg}
  ,                                       !- Time Zone {hr}
  ,                                       !- Elevation {m}
  City;                                   !- Terrain

OS:SimulationControl,
  {c47f277f-4855-4012-93ae-070d031b1dae}, !- Handle
  Yes,                                    !- Do Zone Sizing Calculation
  Yes,                                    !- Do System Sizing Calculation
  Yes,                                    !- Do Plant Sizing Calculation
  No,                                     !- Run Simulation for Sizing Periods
  Yes,                                    !- Run Simulation for Weather File Run Periods
  ,                                       !- Loads Convergence Tolerance Value {W}
  ,                                       !- Temperature Convergence Tolerance Value {deltaC}
  FullExteriorWithReflections;            !- Solar Distribution

OS:Sizing:Parameters,
  {9edd6b23-f9ce-4460-ad5e-87513932a42b}, !- Handle
  1.25,                                   !- Heating Sizing Factor
  1.15;                                   !- Cooling Sizing Factor

OS:Timestep,
  {80594b6e-ecaa-4797-b5fe-8ff7f256cfa6}, !- Handle
  6;                                      !- Number of Timesteps per Hour

OS:ShadowCalculation,
  {c94a0f11-1e69-4db8-923e-49ded568bb9a}, !- Handle
  PolygonClipping,                        !- Shading Calculation Method
  Periodic,                               !- Shading Calculation Update Frequency Method
  30,                                     !- Shading Calculation Update Frequency
  15000,                                  !- Maximum Figures in Shadow Overlap Calculations
  ,                                       !- Polygon Clipping Algorithm
  512,                                    !- Pixel Counting Resolution
  ,                                       !- Sky Diffuse Modeling Algorithm
  No,                                     !- Output External Shading Calculation Results
  No,                                     !- Disable Self-Shading Within Shading Zone Groups
  No;                                     !- Disable Self-Shading From Shading Zone Groups to Other Zones

OS:HeatBalanceAlgorithm,
  {14a696d8-6615-4da4-a954-9e1473d44089}, !- Handle
  ConductionTransferFunction,             !- Algorithm
  200;                                    !- Surface Temperature Upper Limit {C}

OS:RunPeriod,
  {95a9a916-4eda-4ca7-bb93-6b8b17482cec}, !- Handle
  Run Period 1,                           !- Name
  1,                                      !- Begin Month
  1,                                      !- Begin Day of Month
  1,                                      !- End Month
  31,                                     !- End Day of Month
  ,                                       !- Use Weather File Holidays and Special Days
  ,                                       !- Use Weather File Daylight Saving Period
  ,                                       !- Apply Weekend Holiday Rule
  ,                                       !- Use Weather File Rain Indicators
  ,                                       !- Use Weather File Snow Indicators
  ;                                       !- Number of Times Runperiod to be Repeated

OS:LifeCycleCost:Parameters,
  {f1f31715-a5a4-43cc-aee6-abdb99044255}, !- Handle
  ,                                       !- Analysis Type
  ,                                       !- Discounting Convention
  ,                                       !- Inflation Approach
  ,                                       !- Real Discount Rate
  ,                                       !- Nominal Discount Rate
  ,                                       !- Inflation
  ,                                       !- Base Date Month
  ,                                       !- Base Date Year
  ,                                       !- Service Date Month
  ,                                       !- Service Date Year
  ;                                       !- Length of Study Period in Years

OS:WeatherFile,
  {21d54193-ff6b-4d0b-b7d9-03743309fc6c}, !- Handle
  Boston Logan IntL Arpt,                 !- City
  MA,                                     !- State Province Region
  USA,                                    !- Country
  TMY3,                                   !- Data Source
  725090,                                 !- WMO Number
  42.37,                                  !- Latitude {deg}
  -71.02,                                 !- Longitude {deg}
  -5,                                     !- Time Zone {hr}
  6,                                      !- Elevation {m}
  C:/Users/Administrator/ladybug_tools/resources/weather/USA_MA_Boston-Logan.Intl.AP.725090_TMY3/USA_MA_Boston-Logan.Intl.AP.725090_TMY3.epw, !- Url
  B65824C3;                               !- Checksum

OS:ScheduleTypeLimits,
  {87d80d31-ef55-4939-8af2-cbe8017b31b2}, !- Handle
  Temperature,                            !- Name
  -273.15,                                !- Lower Limit Value
  ,                                       !- Upper Limit Value
  Continuous,                             !- Numeric Type
  Temperature;                            !- Unit Type

OS:ScheduleTypeLimits,
  {ee8336c0-f6a0-4742-9d12-917859b4dbd9}, !- Handle
  Activity Level,                         !- Name
  0,                                      !- Lower Limit Value
  ,                                       !- Upper Limit Value
  Continuous,                             !- Numeric Type
  ActivityLevel;                          !- Unit Type

OS:ScheduleTypeLimits,
  {511b7292-ca04-44b0-a496-ccbe38a965fb}, !- Handle
  Fractional,                             !- Name
  0,                                      !- Lower Limit Value
  1,                                      !- Upper Limit Value
  Continuous,                             !- Numeric Type
  Dimensionless;                          !- Unit Type

OS:Schedule:Ruleset,
  {999f5f4b-ebc7-43f6-bdba-f6d89db195df}, !- Handle
  Generic Office Infiltration,            !- Name
  {511b7292-ca04-44b0-a496-ccbe38a965fb}, !- Schedule Type Limits Name
  {be4e4d1a-07b2-453c-9193-2fef1c687965}, !- Default Day Schedule Name
  {fb0943d4-be9d-4136-b951-5618f5a36318}, !- Summer Design Day Schedule Name
  {36911c97-857a-404e-8d25-fc7c743cc49b}, !- Winter Design Day Schedule Name
  {398a57f7-0db9-433c-b861-0f0d5510c011}; !- Holiday Schedule Name

OS:Schedule:Day,
  {be4e4d1a-07b2-453c-9193-2fef1c687965}, !- Handle
  Schedule Day 1,                         !- Name
  {511b7292-ca04-44b0-a496-ccbe38a965fb}, !- Schedule Type Limits Name
  ,                                       !- Interpolate to Timestep
  24,                                     !- Hour 1
  0,                                      !- Minute 1
  1;                                      !- Value Until Time 1

OS:Schedule:Day,
  {0b293f0c-9c45-46d5-9c98-f4a628ed5160}, !- Handle
  OfficeMedium INFIL_SCH_PNNL_Default,    !- Name
  {511b7292-ca04-44b0-a496-ccbe38a965fb}, !- Schedule Type Limits Name
  ,                                       !- Interpolate to Timestep
  24,                                     !- Hour 1
  0,                                      !- Minute 1
  1;                                      !- Value Until Time 1

OS:Schedule:Day,
  {b052f4ef-3fbc-420e-8565-12a5b7e02b09}, !- Handle
  OfficeMedium INFIL_SCH_PNNL_Wkdy_SmrDsn, !- Name
  {511b7292-ca04-44b0-a496-ccbe38a965fb}, !- Schedule Type Limits Name
  ,                                       !- Interpolate to Timestep
  6,                                      !- Hour 1
  0,                                      !- Minute 1
  1,                                      !- Value Until Time 1
  22,                                     !- Hour 2
  0,                                      !- Minute 2
  0.25,                                   !- Value Until Time 2
  24,                                     !- Hour 3
  0,                                      !- Minute 3
  1;                                      !- Value Until Time 3

OS:Schedule:Day,
  {2b4873a2-321c-4547-9ffe-dba08f7340dd}, !- Handle
  OfficeMedium INFIL_SCH_PNNL_Sat_WntrDsn, !- Name
  {511b7292-ca04-44b0-a496-ccbe38a965fb}, !- Schedule Type Limits Name
  ,                                       !- Interpolate to Timestep
  6,                                      !- Hour 1
  0,                                      !- Minute 1
  1,                                      !- Value Until Time 1
  18,                                     !- Hour 2
  0,                                      !- Minute 2
  0.25,                                   !- Value Until Time 2
  24,                                     !- Hour 3
  0,                                      !- Minute 3
  1;                                      !- Value Until Time 3

OS:Schedule:Day,
  {718ffe12-a519-4d36-9d6d-3b31bb694c08}, !- Handle
  OfficeMedium INFIL_SCH_PNNL_Wkdy,       !- Name
  {511b7292-ca04-44b0-a496-ccbe38a965fb}, !- Schedule Type Limits Name
  ,                                       !- Interpolate to Timestep
  6,                                      !- Hour 1
  0,                                      !- Minute 1
  1,                                      !- Value Until Time 1
  22,                                     !- Hour 2
  0,                                      !- Minute 2
  0.25,                                   !- Value Until Time 2
  24,                                     !- Hour 3
  0,                                      !- Minute 3
  1;                                      !- Value Until Time 3

OS:Schedule:Day,
  {c7cefc76-a277-4ac8-8ca6-d4945fd133c0}, !- Handle
  OfficeMedium INFIL_SCH_PNNL_Sat,        !- Name
  {511b7292-ca04-44b0-a496-ccbe38a965fb}, !- Schedule Type Limits Name
  ,                                       !- Interpolate to Timestep
  6,                                      !- Hour 1
  0,                                      !- Minute 1
  1,                                      !- Value Until Time 1
  18,                                     !- Hour 2
  0,                                      !- Minute 2
  0.25,                                   !- Value Until Time 2
  24,                                     !- Hour 3
  0,                                      !- Minute 3
  1;                                      !- Value Until Time 3

OS:Schedule:Day,
  {398a57f7-0db9-433c-b861-0f0d5510c011}, !- Handle
  OfficeMedium INFIL_SCH_PNNL_Default 1,  !- Name
  {511b7292-ca04-44b0-a496-ccbe38a965fb}, !- Schedule Type Limits Name
  ,                                       !- Interpolate to Timestep
  24,                                     !- Hour 1
  0,                                      !- Minute 1
  1;                                      !- Value Until Time 1

OS:Schedule:Day,
  {fb0943d4-be9d-4136-b951-5618f5a36318}, !- Handle
  OfficeMedium INFIL_SCH_PNNL_Wkdy_SmrDsn 1, !- Name
  {511b7292-ca04-44b0-a496-ccbe38a965fb}, !- Schedule Type Limits Name
  ,                                       !- Interpolate to Timestep
  6,                                      !- Hour 1
  0,                                      !- Minute 1
  1,                                      !- Value Until Time 1
  22,                                     !- Hour 2
  0,                                      !- Minute 2
  0.25,                                   !- Value Until Time 2
  24,                                     !- Hour 3
  0,                                      !- Minute 3
  1;                                      !- Value Until Time 3

OS:Schedule:Day,
  {36911c97-857a-404e-8d25-fc7c743cc49b}, !- Handle
  OfficeMedium INFIL_SCH_PNNL_Sat_WntrDsn 1, !- Name
  {511b7292-ca04-44b0-a496-ccbe38a965fb}, !- Schedule Type Limits Name
  ,                                       !- Interpolate to Timestep
  6,                                      !- Hour 1
  0,                                      !- Minute 1
  1,                                      !- Value Until Time 1
  18,                                     !- Hour 2
  0,                                      !- Minute 2
  0.25,                                   !- Value Until Time 2
  24,                                     !- Hour 3
  0,                                      !- Minute 3
  1;                                      !- Value Until Time 3

OS:Schedule:Rule,
  {7e93857a-e370-486c-a76d-13dafe258106}, !- Handle
  Schedule Rule 1,                        !- Name
  {999f5f4b-ebc7-43f6-bdba-f6d89db195df}, !- Schedule Ruleset Name
  0,                                      !- Rule Order
  {07248484-0ab8-4f7d-beaf-4184a036b626}, !- Day Schedule Name
  No,                                     !- Apply Sunday
  Yes,                                    !- Apply Monday
  Yes,                                    !- Apply Tuesday
  Yes,                                    !- Apply Wednesday
  Yes,                                    !- Apply Thursday
  Yes,                                    !- Apply Friday
  No,                                     !- Apply Saturday
  DateRange,                              !- Date Specification Type
  1,                                      !- Start Month
  1,                                      !- Start Day
  12,                                     !- End Month
  31;                                     !- End Day

OS:Schedule:Day,
  {07248484-0ab8-4f7d-beaf-4184a036b626}, !- Handle
  Schedule Day 2,                         !- Name
  {511b7292-ca04-44b0-a496-ccbe38a965fb}, !- Schedule Type Limits Name
  ,                                       !- Interpolate to Timestep
  6,                                      !- Hour 1
  0,                                      !- Minute 1
  1,                                      !- Value Until Time 1
  22,                                     !- Hour 2
  0,                                      !- Minute 2
  0.25,                                   !- Value Until Time 2
  24,                                     !- Hour 3
  0,                                      !- Minute 3
  1;                                      !- Value Until Time 3

OS:YearDescription,
  {1d0d8bc0-c7af-4fca-8ebb-28d1fdb1f93d}, !- Handle
  ,                                       !- Calendar Year
  Sunday;                                 !- Day of Week for Start Day

OS:Schedule:Rule,
  {470e0aa8-dbf9-45fd-a211-9f8627936f55}, !- Handle
  Schedule Rule 2,                        !- Name
  {999f5f4b-ebc7-43f6-bdba-f6d89db195df}, !- Schedule Ruleset Name
  1,                                      !- Rule Order
  {43e531de-5f44-4ae8-8f80-663e163e11df}, !- Day Schedule Name
  No,                                     !- Apply Sunday
  No,                                     !- Apply Monday
  No,                                     !- Apply Tuesday
  No,                                     !- Apply Wednesday
  No,                                     !- Apply Thursday
  No,                                     !- Apply Friday
  Yes,                                    !- Apply Saturday
  DateRange,                              !- Date Specification Type
  1,                                      !- Start Month
  1,                                      !- Start Day
  12,                                     !- End Month
  31;                                     !- End Day

OS:Schedule:Day,
  {43e531de-5f44-4ae8-8f80-663e163e11df}, !- Handle
  Schedule Day 3,                         !- Name
  {511b7292-ca04-44b0-a496-ccbe38a965fb}, !- Schedule Type Limits Name
  ,                                       !- Interpolate to Timestep
  6,                                      !- Hour 1
  0,                                      !- Minute 1
  1,                                      !- Value Until Time 1
  18,                                     !- Hour 2
  0,                                      !- Minute 2
  0.25,                                   !- Value Until Time 2
  24,                                     !- Hour 3
  0,                                      !- Minute 3
  1;                                      !- Value Until Time 3

OS:Schedule:Ruleset,
  {ad19c804-5ca8-4057-82b9-f35d1c00c85d}, !- Handle
  Generic Office Heating,                 !- Name
  {87d80d31-ef55-4939-8af2-cbe8017b31b2}, !- Schedule Type Limits Name
  {3bdd11c0-3abe-4490-a3f1-bf9c5f46d29b}, !- Default Day Schedule Name
  {793b6fa8-961c-44ad-a1af-bc8e0bca35aa}, !- Summer Design Day Schedule Name
  {ee4df3aa-b8b0-484c-9043-de7076427bd3}, !- Winter Design Day Schedule Name
  {e8fc804f-91c8-4801-98de-60bb2f8ac7c6}; !- Holiday Schedule Name

OS:Schedule:Day,
  {3bdd11c0-3abe-4490-a3f1-bf9c5f46d29b}, !- Handle
  Schedule Day 4,                         !- Name
  {87d80d31-ef55-4939-8af2-cbe8017b31b2}, !- Schedule Type Limits Name
  ,                                       !- Interpolate to Timestep
  24,                                     !- Hour 1
  0,                                      !- Minute 1
  15.6;                                   !- Value Until Time 1

OS:Schedule:Day,
  {50290111-b27e-4e75-804c-b8e4e7e2e5a2}, !- Handle
  OfficeMedium HTGSETP_SCH_YES_OPTIMUM_Default, !- Name
  {87d80d31-ef55-4939-8af2-cbe8017b31b2}, !- Schedule Type Limits Name
  ,                                       !- Interpolate to Timestep
  24,                                     !- Hour 1
  0,                                      !- Minute 1
  15.6;                                   !- Value Until Time 1

OS:Schedule:Day,
  {5adbccd7-c4f9-4cd2-a2ac-9d3d3bdcc5f1}, !- Handle
  OfficeMedium HTGSETP_SCH_YES_OPTIMUM_Default_SmrDsn, !- Name
  {87d80d31-ef55-4939-8af2-cbe8017b31b2}, !- Schedule Type Limits Name
  ,                                       !- Interpolate to Timestep
  24,                                     !- Hour 1
  0,                                      !- Minute 1
  15.6;                                   !- Value Until Time 1

OS:Schedule:Day,
  {0bd928ab-90a4-4edc-9d3b-050c6c1bc168}, !- Handle
  OfficeMedium HTGSETP_SCH_YES_OPTIMUM_WntrDsn, !- Name
  {87d80d31-ef55-4939-8af2-cbe8017b31b2}, !- Schedule Type Limits Name
  ,                                       !- Interpolate to Timestep
  5,                                      !- Hour 1
  0,                                      !- Minute 1
  15.6,                                   !- Value Until Time 1
  6,                                      !- Hour 2
  0,                                      !- Minute 2
  17.6,                                   !- Value Until Time 2
  7,                                      !- Hour 3
  0,                                      !- Minute 3
  19.6,                                   !- Value Until Time 3
  22,                                     !- Hour 4
  0,                                      !- Minute 4
  21,                                     !- Value Until Time 4
  24,                                     !- Hour 5
  0,                                      !- Minute 5
  15.6;                                   !- Value Until Time 5

OS:Schedule:Day,
  {03fd5572-2689-4513-ae9e-561b768074f9}, !- Handle
  OfficeMedium HTGSETP_SCH_YES_OPTIMUM_Wkdy, !- Name
  {87d80d31-ef55-4939-8af2-cbe8017b31b2}, !- Schedule Type Limits Name
  ,                                       !- Interpolate to Timestep
  5,                                      !- Hour 1
  0,                                      !- Minute 1
  15.6,                                   !- Value Until Time 1
  6,                                      !- Hour 2
  0,                                      !- Minute 2
  17.8,                                   !- Value Until Time 2
  7,                                      !- Hour 3
  0,                                      !- Minute 3
  20,                                     !- Value Until Time 3
  22,                                     !- Hour 4
  0,                                      !- Minute 4
  21,                                     !- Value Until Time 4
  24,                                     !- Hour 5
  0,                                      !- Minute 5
  15.6;                                   !- Value Until Time 5

OS:Schedule:Day,
  {4b62c41e-20ab-48ab-a32a-3a29fc2ce842}, !- Handle
  OfficeMedium HTGSETP_SCH_YES_OPTIMUM_Sat, !- Name
  {87d80d31-ef55-4939-8af2-cbe8017b31b2}, !- Schedule Type Limits Name
  ,                                       !- Interpolate to Timestep
  5,                                      !- Hour 1
  0,                                      !- Minute 1
  15.6,                                   !- Value Until Time 1
  6,                                      !- Hour 2
  0,                                      !- Minute 2
  17.8,                                   !- Value Until Time 2
  7,                                      !- Hour 3
  0,                                      !- Minute 3
  20,                                     !- Value Until Time 3
  17,                                     !- Hour 4
  0,                                      !- Minute 4
  21,                                     !- Value Until Time 4
  24,                                     !- Hour 5
  0,                                      !- Minute 5
  15.6;                                   !- Value Until Time 5

OS:Schedule:Day,
  {e8fc804f-91c8-4801-98de-60bb2f8ac7c6}, !- Handle
  OfficeMedium HTGSETP_SCH_YES_OPTIMUM_Default 1, !- Name
  {87d80d31-ef55-4939-8af2-cbe8017b31b2}, !- Schedule Type Limits Name
  ,                                       !- Interpolate to Timestep
  24,                                     !- Hour 1
  0,                                      !- Minute 1
  15.6;                                   !- Value Until Time 1

OS:Schedule:Day,
  {793b6fa8-961c-44ad-a1af-bc8e0bca35aa}, !- Handle
  OfficeMedium HTGSETP_SCH_YES_OPTIMUM_Default_SmrDsn 1, !- Name
  {87d80d31-ef55-4939-8af2-cbe8017b31b2}, !- Schedule Type Limits Name
  ,                                       !- Interpolate to Timestep
  24,                                     !- Hour 1
  0,                                      !- Minute 1
  15.6;                                   !- Value Until Time 1

OS:Schedule:Day,
  {ee4df3aa-b8b0-484c-9043-de7076427bd3}, !- Handle
  OfficeMedium HTGSETP_SCH_YES_OPTIMUM_WntrDsn 1, !- Name
  {87d80d31-ef55-4939-8af2-cbe8017b31b2}, !- Schedule Type Limits Name
  ,                                       !- Interpolate to Timestep
  5,                                      !- Hour 1
  0,                                      !- Minute 1
  15.6,                                   !- Value Until Time 1
  6,                                      !- Hour 2
  0,                                      !- Minute 2
  17.6,                                   !- Value Until Time 2
  7,                                      !- Hour 3
  0,                                      !- Minute 3
  19.6,                                   !- Value Until Time 3
  22,                                     !- Hour 4
  0,                                      !- Minute 4
  21,                                     !- Value Until Time 4
  24,                                     !- Hour 5
  0,                                      !- Minute 5
  15.6;                                   !- Value Until Time 5

OS:Schedule:Rule,
  {855e3413-8118-4c99-b996-f4e5f2522eb5}, !- Handle
  Schedule Rule 3,                        !- Name
  {ad19c804-5ca8-4057-82b9-f35d1c00c85d}, !- Schedule Ruleset Name
  0,                                      !- Rule Order
  {f7649ce3-a5c6-4794-a8a8-7bfa5d73126a}, !- Day Schedule Name
  No,                                     !- Apply Sunday
  Yes,                                    !- Apply Monday
  Yes,                                    !- Apply Tuesday
  Yes,                                    !- Apply Wednesday
  Yes,                                    !- Apply Thursday
  Yes,                                    !- Apply Friday
  No,                                     !- Apply Saturday
  DateRange,                              !- Date Specification Type
  1,                                      !- Start Month
  1,                                      !- Start Day
  12,                                     !- End Month
  31;                                     !- End Day

OS:Schedule:Day,
  {f7649ce3-a5c6-4794-a8a8-7bfa5d73126a}, !- Handle
  Schedule Day 5,                         !- Name
  {87d80d31-ef55-4939-8af2-cbe8017b31b2}, !- Schedule Type Limits Name
  ,                                       !- Interpolate to Timestep
  5,                                      !- Hour 1
  0,                                      !- Minute 1
  15.6,                                   !- Value Until Time 1
  6,                                      !- Hour 2
  0,                                      !- Minute 2
  17.8,                                   !- Value Until Time 2
  7,                                      !- Hour 3
  0,                                      !- Minute 3
  20,                                     !- Value Until Time 3
  22,                                     !- Hour 4
  0,                                      !- Minute 4
  21,                                     !- Value Until Time 4
  24,                                     !- Hour 5
  0,                                      !- Minute 5
  15.6;                                   !- Value Until Time 5

OS:Schedule:Rule,
  {a62b2f76-cf3a-4684-ac2c-28e9fee81377}, !- Handle
  Schedule Rule 4,                        !- Name
  {ad19c804-5ca8-4057-82b9-f35d1c00c85d}, !- Schedule Ruleset Name
  1,                                      !- Rule Order
  {092ca3ac-b113-4881-b427-4a568ff4b926}, !- Day Schedule Name
  No,                                     !- Apply Sunday
  No,                                     !- Apply Monday
  No,                                     !- Apply Tuesday
  No,                                     !- Apply Wednesday
  No,                                     !- Apply Thursday
  No,                                     !- Apply Friday
  Yes,                                    !- Apply Saturday
  DateRange,                              !- Date Specification Type
  1,                                      !- Start Month
  1,                                      !- Start Day
  12,                                     !- End Month
  31;                                     !- End Day

OS:Schedule:Day,
  {092ca3ac-b113-4881-b427-4a568ff4b926}, !- Handle
  Schedule Day 6,                         !- Name
  {87d80d31-ef55-4939-8af2-cbe8017b31b2}, !- Schedule Type Limits Name
  ,                                       !- Interpolate to Timestep
  5,                                      !- Hour 1
  0,                                      !- Minute 1
  15.6,                                   !- Value Until Time 1
  6,                                      !- Hour 2
  0,                                      !- Minute 2
  17.8,                                   !- Value Until Time 2
  7,                                      !- Hour 3
  0,                                      !- Minute 3
  20,                                     !- Value Until Time 3
  17,                                     !- Hour 4
  0,                                      !- Minute 4
  21,                                     !- Value Until Time 4
  24,                                     !- Hour 5
  0,                                      !- Minute 5
  15.6;                                   !- Value Until Time 5

OS:Schedule:Ruleset,
  {6a47f50e-9bc7-45f4-ba4f-7dc3ca3e5477}, !- Handle
  Generic Office Equipment,               !- Name
  {511b7292-ca04-44b0-a496-ccbe38a965fb}, !- Schedule Type Limits Name
  {9c4905a1-575f-4771-ba34-71a83b505e3d}, !- Default Day Schedule Name
  {12335909-6311-40ff-adca-d2bf52583dce}, !- Summer Design Day Schedule Name
  {b7edda94-9603-4a71-bc59-9db2ea8a0dae}, !- Winter Design Day Schedule Name
  {b6559a70-1c72-4a6e-8f29-ee5befc7b053}; !- Holiday Schedule Name

OS:Schedule:Day,
  {9c4905a1-575f-4771-ba34-71a83b505e3d}, !- Handle
  Schedule Day 7,                         !- Name
  {511b7292-ca04-44b0-a496-ccbe38a965fb}, !- Schedule Type Limits Name
  ,                                       !- Interpolate to Timestep