
OS:Version,
  {eb198990-1fd6-441e-9bb5-c8750f1193d9}, !- Handle
  3.0.1;                                  !- Version Identifier

OS:Building,
  {2d8a8b9b-edb2-494d-a489-db4f8289efd1}, !- Handle
  Building 1,                             !- Name
  ,                                       !- Building Sector Type
  -0,                                     !- North Axis {deg}
  ,                                       !- Nominal Floor to Floor Height {m}
  ,                                       !- Space Type Name
  {ddbb8b3f-1e4d-4271-942f-b4bc9ffab098}, !- Default Construction Set Name
  ,                                       !- Default Schedule Set Name
  ,                                       !- Standards Number of Stories
  ,                                       !- Standards Number of Above Ground Stories
  ,                                       !- Standards Template
  MediumOffice;                           !- Standards Building Type

OS:Facility,
  {5a72723a-d731-406d-80e8-b9a6108b985f}; !- Handle

OS:Site,
  {7927f08f-1030-4f28-bc0a-5c3f3342839d}, !- Handle
  Site 1,                                 !- Name
  ,                                       !- Latitude {deg}
  ,                                       !- Longitude {deg}
  ,                                       !- Time Zone {hr}
  ,                                       !- Elevation {m}
  City;                                   !- Terrain

OS:SimulationControl,
  {b1dc62dc-3d69-44ae-833c-e2dc1157c3e0}, !- Handle
  Yes,                                    !- Do Zone Sizing Calculation
  Yes,                                    !- Do System Sizing Calculation
  Yes,                                    !- Do Plant Sizing Calculation
  No,                                     !- Run Simulation for Sizing Periods
  Yes,                                    !- Run Simulation for Weather File Run Periods
  ,                                       !- Loads Convergence Tolerance Value {W}
  ,                                       !- Temperature Convergence Tolerance Value {deltaC}
  FullExteriorWithReflections;            !- Solar Distribution

OS:Sizing:Parameters,
  {799009f3-e7c4-4a63-a685-3dff90fca713}, !- Handle
  1.25,                                   !- Heating Sizing Factor
  1.15;                                   !- Cooling Sizing Factor

OS:Timestep,
  {fb325666-3cc5-46b8-b8bd-e31707ddc634}, !- Handle
  6;                                      !- Number of Timesteps per Hour

OS:ShadowCalculation,
  {2a296919-8d5d-4cd6-a868-d4af374ae664}, !- Handle
  PolygonClipping,                        !- Shading Calculation Method
  Periodic,                               !- Shading Calculation Update Frequency Method
  30,                                     !- Shading Calculation Update Frequency
  15000,                                  !- Maximum Figures in Shadow Overlap Calculations
  ,                                       !- Polygon Clipping Algorithm
  512,                                    !- Pixel Counting Resolution
  ,                                       !- Sky Diffuse Modeling Algorithm
  No,                                     !- Output External Shading Calculation Results
  No,                                     !- Disable Self-Shading Within Shading Zone Groups
  No;                                     !- Disable Self-Shading From Shading Zone Groups to Other Zones

OS:HeatBalanceAlgorithm,
  {9d2de545-5b31-4850-b8ef-3903d42a8bf3}, !- Handle
  ConductionTransferFunction,             !- Algorithm
  200;                                    !- Surface Temperature Upper Limit {C}

OS:RunPeriod,
  {d56e3343-913a-456c-b0e2-5d1a769befd2}, !- Handle
  Run Period 1,                           !- Name
  1,                                      !- Begin Month
  1,                                      !- Begin Day of Month
  1,                                      !- End Month
  31,                                     !- End Day of Month
  ,                                       !- Use Weather File Holidays and Special Days
  ,                                       !- Use Weather File Daylight Saving Period
  ,                                       !- Apply Weekend Holiday Rule
  ,                                       !- Use Weather File Rain Indicators
  ,                                       !- Use Weather File Snow Indicators
  ;                                       !- Number of Times Runperiod to be Repeated

OS:LifeCycleCost:Parameters,
  {ae9027fd-fa5b-43e7-91e0-3a5f1f9ea741}, !- Handle
  ,                                       !- Analysis Type
  ,                                       !- Discounting Convention
  ,                                       !- Inflation Approach
  ,                                       !- Real Discount Rate
  ,                                       !- Nominal Discount Rate
  ,                                       !- Inflation
  ,                                       !- Base Date Month
  ,                                       !- Base Date Year
  ,                                       !- Service Date Month
  ,                                       !- Service Date Year
  ;                                       !- Length of Study Period in Years

OS:WeatherFile,
  {c1c5dd1a-e222-4fbf-8689-8fcd40af317e}, !- Handle
  Boston Logan IntL Arpt,                 !- City
  MA,                                     !- State Province Region
  USA,                                    !- Country
  TMY3,                                   !- Data Source
  725090,                                 !- WMO Number
  42.37,                                  !- Latitude {deg}
  -71.02,                                 !- Longitude {deg}
  -5,                                     !- Time Zone {hr}
  6,                                      !- Elevation {m}
  C:/Users/Administrator/ladybug_tools/resources/weather/USA_MA_Boston-Logan.Intl.AP.725090_TMY3/USA_MA_Boston-Logan.Intl.AP.725090_TMY3.epw, !- Url
  B65824C3;                               !- Checksum

OS:ScheduleTypeLimits,
  {e77569c3-5fad-4257-8bde-4fe52a1d28ad}, !- Handle
  Temperature,                            !- Name
  -273.15,                                !- Lower Limit Value
  ,                                       !- Upper Limit Value
  Continuous,                             !- Numeric Type
  Temperature;                            !- Unit Type

OS:ScheduleTypeLimits,
  {e50276fa-57a3-4ba8-af12-10463b3569aa}, !- Handle
  Activity Level,                         !- Name
  0,                                      !- Lower Limit Value
  ,                                       !- Upper Limit Value
  Continuous,                             !- Numeric Type
  ActivityLevel;                          !- Unit Type

OS:ScheduleTypeLimits,
  {a1ec4f6c-7fe7-4d78-b984-2f002cafa72a}, !- Handle
  Fractional,                             !- Name
  0,                                      !- Lower Limit Value
  1,                                      !- Upper Limit Value
  Continuous,                             !- Numeric Type
  Dimensionless;                          !- Unit Type

OS:Schedule:Ruleset,
  {442da2db-d0a9-44ad-95ca-a1db9ce51a20}, !- Handle
  Generic Office Infiltration,            !- Name
  {a1ec4f6c-7fe7-4d78-b984-2f002cafa72a}, !- Schedule Type Limits Name
  {397011a9-14c7-43d4-9163-c4f66791a5bd}, !- Default Day Schedule Name
  {ddf6bc3c-a789-4a34-af14-f05b7fed9e6a}, !- Summer Design Day Schedule Name
  {79af9342-32de-42f3-a869-5110964d3d3e}, !- Winter Design Day Schedule Name
  {678b8875-ec11-4138-b593-395ed8a35d16}; !- Holiday Schedule Name

OS:Schedule:Day,
  {397011a9-14c7-43d4-9163-c4f66791a5bd}, !- Handle
  Schedule Day 1,                         !- Name
  {a1ec4f6c-7fe7-4d78-b984-2f002cafa72a}, !- Schedule Type Limits Name
  ,                                       !- Interpolate to Timestep
  24,                                     !- Hour 1
  0,                                      !- Minute 1
  1;                                      !- Value Until Time 1

OS:Schedule:Day,
  {9399abe5-b94a-4396-a51b-a45b40588857}, !- Handle
  OfficeMedium INFIL_SCH_PNNL_Default,    !- Name
  {a1ec4f6c-7fe7-4d78-b984-2f002cafa72a}, !- Schedule Type Limits Name
  ,                                       !- Interpolate to Timestep
  24,                                     !- Hour 1
  0,                                      !- Minute 1
  1;                                      !- Value Until Time 1

OS:Schedule:Day,
  {1cfaceab-f845-49f7-a86e-075ba300d23c}, !- Handle
  OfficeMedium INFIL_SCH_PNNL_Wkdy_SmrDsn, !- Name
  {a1ec4f6c-7fe7-4d78-b984-2f002cafa72a}, !- Schedule Type Limits Name
  ,                                       !- Interpolate to Timestep
  6,                                      !- Hour 1
  0,                                      !- Minute 1
  1,                                      !- Value Until Time 1
  22,                                     !- Hour 2
  0,                                      !- Minute 2
  0.25,                                   !- Value Until Time 2
  24,                                     !- Hour 3
  0,                                      !- Minute 3
  1;                                      !- Value Until Time 3

OS:Schedule:Day,
  {004b2b89-9f95-400f-91f9-c4784b9f8cf5}, !- Handle
  OfficeMedium INFIL_SCH_PNNL_Sat_WntrDsn, !- Name
  {a1ec4f6c-7fe7-4d78-b984-2f002cafa72a}, !- Schedule Type Limits Name
  ,                                       !- Interpolate to Timestep
  6,                                      !- Hour 1
  0,                                      !- Minute 1
  1,                                      !- Value Until Time 1
  18,                                     !- Hour 2
  0,                                      !- Minute 2
  0.25,                                   !- Value Until Time 2
  24,                                     !- Hour 3
  0,                                      !- Minute 3
  1;                                      !- Value Until Time 3

OS:Schedule:Day,
  {ded12f4c-214c-496f-81b9-aab43ef4e5b2}, !- Handle
  OfficeMedium INFIL_SCH_PNNL_Wkdy,       !- Name
  {a1ec4f6c-7fe7-4d78-b984-2f002cafa72a}, !- Schedule Type Limits Name
  ,                                       !- Interpolate to Timestep
  6,                                      !- Hour 1
  0,                                      !- Minute 1
  1,                                      !- Value Until Time 1
  22,                                     !- Hour 2
  0,                                      !- Minute 2
  0.25,                                   !- Value Until Time 2
  24,                                     !- Hour 3
  0,                                      !- Minute 3
  1;                                      !- Value Until Time 3

OS:Schedule:Day,
  {c68ccf2c-0e6e-4e9c-aa9c-a2b236ec290e}, !- Handle
  OfficeMedium INFIL_SCH_PNNL_Sat,        !- Name
  {a1ec4f6c-7fe7-4d78-b984-2f002cafa72a}, !- Schedule Type Limits Name
  ,                                       !- Interpolate to Timestep
  6,                                      !- Hour 1
  0,                                      !- Minute 1
  1,                                      !- Value Until Time 1
  18,                                     !- Hour 2
  0,                                      !- Minute 2
  0.25,                                   !- Value Until Time 2
  24,                                     !- Hour 3
  0,                                      !- Minute 3
  1;                                      !- Value Until Time 3

OS:Schedule:Day,
  {678b8875-ec11-4138-b593-395ed8a35d16}, !- Handle
  OfficeMedium INFIL_SCH_PNNL_Default 1,  !- Name
  {a1ec4f6c-7fe7-4d78-b984-2f002cafa72a}, !- Schedule Type Limits Name
  ,                                       !- Interpolate to Timestep
  24,                                     !- Hour 1
  0,                                      !- Minute 1
  1;                                      !- Value Until Time 1

OS:Schedule:Day,
  {ddf6bc3c-a789-4a34-af14-f05b7fed9e6a}, !- Handle
  OfficeMedium INFIL_SCH_PNNL_Wkdy_SmrDsn 1, !- Name
  {a1ec4f6c-7fe7-4d78-b984-2f002cafa72a}, !- Schedule Type Limits Name
  ,                                       !- Interpolate to Timestep
  6,                                      !- Hour 1
  0,                                      !- Minute 1
  1,                                      !- Value Until Time 1
  22,                                     !- Hour 2
  0,                                      !- Minute 2
  0.25,                                   !- Value Until Time 2
  24,                                     !- Hour 3
  0,                                      !- Minute 3
  1;                                      !- Value Until Time 3

OS:Schedule:Day,
  {79af9342-32de-42f3-a869-5110964d3d3e}, !- Handle
  OfficeMedium INFIL_SCH_PNNL_Sat_WntrDsn 1, !- Name
  {a1ec4f6c-7fe7-4d78-b984-2f002cafa72a}, !- Schedule Type Limits Name
  ,                                       !- Interpolate to Timestep
  6,                                      !- Hour 1
  0,                                      !- Minute 1
  1,                                      !- Value Until Time 1
  18,                                     !- Hour 2
  0,                                      !- Minute 2
  0.25,                                   !- Value Until Time 2
  24,                                     !- Hour 3
  0,                                      !- Minute 3
  1;                                      !- Value Until Time 3

OS:Schedule:Rule,
  {c7247734-dc8c-4208-945d-9356dd286af6}, !- Handle
  Schedule Rule 1,                        !- Name
  {442da2db-d0a9-44ad-95ca-a1db9ce51a20}, !- Schedule Ruleset Name
  0,                                      !- Rule Order
  {f28b4a11-ae2b-43d0-a924-50db549c46e6}, !- Day Schedule Name
  No,                                     !- Apply Sunday
  Yes,                                    !- Apply Monday
  Yes,                                    !- Apply Tuesday
  Yes,                                    !- Apply Wednesday
  Yes,                                    !- Apply Thursday
  Yes,                                    !- Apply Friday
  No,                                     !- Apply Saturday
  DateRange,                              !- Date Specification Type
  1,                                      !- Start Month
  1,                                      !- Start Day
  12,                                     !- End Month
  31;                                     !- End Day

OS:Schedule:Day,
  {f28b4a11-ae2b-43d0-a924-50db549c46e6}, !- Handle
  Schedule Day 2,                         !- Name
  {a1ec4f6c-7fe7-4d78-b984-2f002cafa72a}, !- Schedule Type Limits Name
  ,                                       !- Interpolate to Timestep
  6,                                      !- Hour 1
  0,                                      !- Minute 1
  1,                                      !- Value Until Time 1
  22,                                     !- Hour 2
  0,                                      !- Minute 2
  0.25,                                   !- Value Until Time 2
  24,                                     !- Hour 3
  0,                                      !- Minute 3
  1;                                      !- Value Until Time 3

OS:YearDescription,
  {89f39db7-1ba2-42ca-9dab-e05e5542e29b}, !- Handle
  ,                                       !- Calendar Year
  Sunday;                                 !- Day of Week for Start Day

OS:Schedule:Rule,
  {a55df990-9a04-4488-b79c-f6e87dd5da5d}, !- Handle
  Schedule Rule 2,                        !- Name
  {442da2db-d0a9-44ad-95ca-a1db9ce51a20}, !- Schedule Ruleset Name
  1,                                      !- Rule Order
  {61139954-ac84-46a3-82b3-8c859ee39888}, !- Day Schedule Name
  No,                                     !- Apply Sunday
  No,                                     !- Apply Monday
  No,                                     !- Apply Tuesday
  No,                                     !- Apply Wednesday
  No,                                     !- Apply Thursday
  No,                                     !- Apply Friday
  Yes,                                    !- Apply Saturday
  DateRange,                              !- Date Specification Type
  1,                                      !- Start Month
  1,                                      !- Start Day
  12,                                     !- End Month
  31;                                     !- End Day

OS:Schedule:Day,
  {61139954-ac84-46a3-82b3-8c859ee39888}, !- Handle
  Schedule Day 3,                         !- Name
  {a1ec4f6c-7fe7-4d78-b984-2f002cafa72a}, !- Schedule Type Limits Name
  ,                                       !- Interpolate to Timestep
  6,                                      !- Hour 1
  0,                                      !- Minute 1
  1,                                      !- Value Until Time 1
  18,                                     !- Hour 2
  0,                                      !- Minute 2
  0.25,                                   !- Value Until Time 2
  24,                                     !- Hour 3
  0,                                      !- Minute 3
  1;                                      !- Value Until Time 3

OS:Schedule:Ruleset,
  {7fbbd62b-bc90-441b-b389-4fa73c852ca6}, !- Handle
  Generic Office Heating,                 !- Name
  {e77569c3-5fad-4257-8bde-4fe52a1d28ad}, !- Schedule Type Limits Name
  {d9aafa9a-40f9-4e6e-ba5c-0badc5c61456}, !- Default Day Schedule Name
  {fc4e2f6a-d51a-4e63-892c-9f5b3397881e}, !- Summer Design Day Schedule Name
  {6508526f-c0d7-46d1-a0a7-181b77f27d72}, !- Winter Design Day Schedule Name
  {fef744eb-73e2-4689-bf76-d565d6559f03}; !- Holiday Schedule Name

OS:Schedule:Day,
  {d9aafa9a-40f9-4e6e-ba5c-0badc5c61456}, !- Handle
  Schedule Day 4,                         !- Name
  {e77569c3-5fad-4257-8bde-4fe52a1d28ad}, !- Schedule Type Limits Name
  ,                                       !- Interpolate to Timestep
  24,                                     !- Hour 1
  0,                                      !- Minute 1
  15.6;                                   !- Value Until Time 1

OS:Schedule:Day,
  {bc7db056-beb9-4d04-b476-9de298242922}, !- Handle
  OfficeMedium HTGSETP_SCH_YES_OPTIMUM_Default, !- Name
  {e77569c3-5fad-4257-8bde-4fe52a1d28ad}, !- Schedule Type Limits Name
  ,                                       !- Interpolate to Timestep
  24,                                     !- Hour 1
  0,                                      !- Minute 1
  15.6;                                   !- Value Until Time 1

OS:Schedule:Day,
  {ba2b54eb-523a-4266-8124-c2812c36a80a}, !- Handle
  OfficeMedium HTGSETP_SCH_YES_OPTIMUM_Default_SmrDsn, !- Name
  {e77569c3-5fad-4257-8bde-4fe52a1d28ad}, !- Schedule Type Limits Name
  ,                                       !- Interpolate to Timestep
  24,                                     !- Hour 1
  0,                                      !- Minute 1
  15.6;                                   !- Value Until Time 1

OS:Schedule:Day,
  {aca1f6f7-0801-4f41-8209-2a8b460c7cff}, !- Handle
  OfficeMedium HTGSETP_SCH_YES_OPTIMUM_WntrDsn, !- Name
  {e77569c3-5fad-4257-8bde-4fe52a1d28ad}, !- Schedule Type Limits Name
  ,                                       !- Interpolate to Timestep
  5,                                      !- Hour 1
  0,                                      !- Minute 1
  15.6,                                   !- Value Until Time 1
  6,                                      !- Hour 2
  0,                                      !- Minute 2
  17.6,                                   !- Value Until Time 2
  7,                                      !- Hour 3
  0,                                      !- Minute 3
  19.6,                                   !- Value Until Time 3
  22,                                     !- Hour 4
  0,                                      !- Minute 4
  21,                                     !- Value Until Time 4
  24,                                     !- Hour 5
  0,                                      !- Minute 5
  15.6;                                   !- Value Until Time 5

OS:Schedule:Day,
  {5f50f9eb-f289-496b-a1c2-bb1d26f57d64}, !- Handle
  OfficeMedium HTGSETP_SCH_YES_OPTIMUM_Wkdy, !- Name
  {e77569c3-5fad-4257-8bde-4fe52a1d28ad}, !- Schedule Type Limits Name
  ,                                       !- Interpolate to Timestep
  5,                                      !- Hour 1
  0,                                      !- Minute 1
  15.6,                                   !- Value Until Time 1
  6,                                      !- Hour 2
  0,                                      !- Minute 2
  17.8,                                   !- Value Until Time 2
  7,                                      !- Hour 3
  0,                                      !- Minute 3
  20,                                     !- Value Until Time 3
  22,                                     !- Hour 4
  0,                                      !- Minute 4
  21,                                     !- Value Until Time 4
  24,                                     !- Hour 5
  0,                                      !- Minute 5
  15.6;                                   !- Value Until Time 5

OS:Schedule:Day,
  {25ae9aed-7322-4e23-b7fa-1b2ab9b2ea37}, !- Handle
  OfficeMedium HTGSETP_SCH_YES_OPTIMUM_Sat, !- Name
  {e77569c3-5fad-4257-8bde-4fe52a1d28ad}, !- Schedule Type Limits Name
  ,                                       !- Interpolate to Timestep
  5,                                      !- Hour 1
  0,                                      !- Minute 1
  15.6,                                   !- Value Until Time 1
  6,                                      !- Hour 2
  0,                                      !- Minute 2
  17.8,                                   !- Value Until Time 2
  7,                                      !- Hour 3
  0,                                      !- Minute 3
  20,                                     !- Value Until Time 3
  17,                                     !- Hour 4
  0,                                      !- Minute 4
  21,                                     !- Value Until Time 4
  24,                                     !- Hour 5
  0,                                      !- Minute 5
  15.6;                                   !- Value Until Time 5

OS:Schedule:Day,
  {fef744eb-73e2-4689-bf76-d565d6559f03}, !- Handle
  OfficeMedium HTGSETP_SCH_YES_OPTIMUM_Default 1, !- Name
  {e77569c3-5fad-4257-8bde-4fe52a1d28ad}, !- Schedule Type Limits Name
  ,                                       !- Interpolate to Timestep
  24,                                     !- Hour 1
  0,                                      !- Minute 1
  15.6;                                   !- Value Until Time 1

OS:Schedule:Day,
  {fc4e2f6a-d51a-4e63-892c-9f5b3397881e}, !- Handle
  OfficeMedium HTGSETP_SCH_YES_OPTIMUM_Default_SmrDsn 1, !- Name
  {e77569c3-5fad-4257-8bde-4fe52a1d28ad}, !- Schedule Type Limits Name
  ,                                       !- Interpolate to Timestep
  24,                                     !- Hour 1
  0,                                      !- Minute 1
  15.6;                                   !- Value Until Time 1

OS:Schedule:Day,
  {6508526f-c0d7-46d1-a0a7-181b77f27d72}, !- Handle
  OfficeMedium HTGSETP_SCH_YES_OPTIMUM_WntrDsn 1, !- Name
  {e77569c3-5fad-4257-8bde-4fe52a1d28ad}, !- Schedule Type Limits Name
  ,                                       !- Interpolate to Timestep
  5,                                      !- Hour 1
  0,                                      !- Minute 1
  15.6,                                   !- Value Until Time 1
  6,                                      !- Hour 2
  0,                                      !- Minute 2
  17.6,                                   !- Value Until Time 2
  7,                                      !- Hour 3
  0,                                      !- Minute 3
  19.6,                                   !- Value Until Time 3
  22,                                     !- Hour 4
  0,                                      !- Minute 4
  21,                                     !- Value Until Time 4
  24,                                     !- Hour 5
  0,                                      !- Minute 5
  15.6;                                   !- Value Until Time 5

OS:Schedule:Rule,
  {7d9d794b-ae29-4922-9e62-77c7784d7fd2}, !- Handle
  Schedule Rule 3,                        !- Name
  {7fbbd62b-bc90-441b-b389-4fa73c852ca6}, !- Schedule Ruleset Name
  0,                                      !- Rule Order
  {6ce55bff-d1bd-4bbb-96a2-954509063f6e}, !- Day Schedule Name
  No,                                     !- Apply Sunday
  Yes,                                    !- Apply Monday
  Yes,                                    !- Apply Tuesday
  Yes,                                    !- Apply Wednesday
  Yes,                                    !- Apply Thursday
  Yes,                                    !- Apply Friday
  No,                                     !- Apply Saturday
  DateRange,                              !- Date Specification Type
  1,                                      !- Start Month
  1,                                      !- Start Day
  12,                                     !- End Month
  31;                                     !- End Day

OS:Schedule:Day,
  {6ce55bff-d1bd-4bbb-96a2-954509063f6e}, !- Handle
  Schedule Day 5,                         !- Name
  {e77569c3-5fad-4257-8bde-4fe52a1d28ad}, !- Schedule Type Limits Name
  ,                                       !- Interpolate to Timestep
  5,                                      !- Hour 1
  0,                                      !- Minute 1
  15.6,                                   !- Value Until Time 1
  6,                                      !- Hour 2
  0,                                      !- Minute 2
  17.8,                                   !- Value Until Time 2
  7,                                      !- Hour 3
  0,                                      !- Minute 3
  20,                                     !- Value Until Time 3
  22,                                     !- Hour 4
  0,                                      !- Minute 4
  21,                                     !- Value Until Time 4
  24,                                     !- Hour 5
  0,                                      !- Minute 5
  15.6;                                   !- Value Until Time 5

OS:Schedule:Rule,
  {ad46bbae-7cae-4440-abb4-b75de290077e}, !- Handle
  Schedule Rule 4,                        !- Name
  {7fbbd62b-bc90-441b-b389-4fa73c852ca6}, !- Schedule Ruleset Name
  1,                                      !- Rule Order
  {245f2212-f6c1-4e5c-ae61-40b76e3779c7}, !- Day Schedule Name
  No,                                     !- Apply Sunday
  No,                                     !- Apply Monday
  No,                                     !- Apply Tuesday
  No,                                     !- Apply Wednesday
  No,                                     !- Apply Thursday
  No,                                     !- Apply Friday
  Yes,                                    !- Apply Saturday
  DateRange,                              !- Date Specification Type
  1,                                      !- Start Month
  1,                                      !- Start Day
  12,                                     !- End Month
  31;                                     !- End Day

OS:Schedule:Day,
  {245f2212-f6c1-4e5c-ae61-40b76e3779c7}, !- Handle
  Schedule Day 6,                         !- Name
  {e77569c3-5fad-4257-8bde-4fe52a1d28ad}, !- Schedule Type Limits Name
  ,                                       !- Interpolate to Timestep
  5,                                      !- Hour 1
  0,                                      !- Minute 1
  15.6,                                   !- Value Until Time 1
  6,                                      !- Hour 2
  0,                                      !- Minute 2
  17.8,                                   !- Value Until Time 2
  7,                                      !- Hour 3
  0,                                      !- Minute 3
  20,                                     !- Value Until Time 3
  17,                                     !- Hour 4
  0,                                      !- Minute 4
  21,                                     !- Value Until Time 4
  24,                                     !- Hour 5
  0,                                      !- Minute 5
  15.6;                                   !- Value Until Time 5

OS:Schedule:Ruleset,
  {414f4ea9-be0a-4664-8919-a30c848b750b}, !- Handle
  Generic Office Equipment,               !- Name
  {a1ec4f6c-7fe7-4d78-b984-2f002cafa72a}, !- Schedule Type Limits Name
  {daacd009-1f34-4fcc-9e3b-4b7845030426}, !- Default Day Schedule Name
  {122af357-1186-46e5-bb91-de54cbf2aed1}, !- Summer Design Day Schedule Name
  {8e4ed6e7-d60f-4841-958a-30b02231e003}, !- Winter Design Day Schedule Name
  {76ebfaa1-23b3-4836-9a81-bd977f564bd9}; !- Holiday Schedule Name

OS:Schedule:Day,
  {daacd009-1f34-4fcc-9e3b-4b7845030426}, !- Handle
  Schedule Day 7,                         !- Name
  {a1ec4f6c-7fe7-4d78-b984-2f002cafa72a}, !- Schedule Type Limits Name
  ,                                       !- Interpolate to Timestep