
OS:Version,
  {3d8d6175-7f0e-4d45-a3a5-d60804146e12}, !- Handle
  3.0.1;                                  !- Version Identifier

OS:Building,
  {0890faa0-ff44-445e-b59b-b805fd43a969}, !- Handle
  Building 1,                             !- Name
  ,                                       !- Building Sector Type
  -0,                                     !- North Axis {deg}
  ,                                       !- Nominal Floor to Floor Height {m}
  ,                                       !- Space Type Name
  {ed8e5804-65ac-4a7f-85d2-cce90253eb38}, !- Default Construction Set Name
  ,                                       !- Default Schedule Set Name
  ,                                       !- Standards Number of Stories
  ,                                       !- Standards Number of Above Ground Stories
  ,                                       !- Standards Template
  MediumOffice;                           !- Standards Building Type

OS:Facility,
  {4214e916-ef79-496e-99fc-0a5468e4677f}; !- Handle

OS:Site,
  {9852d7d2-8f0f-449d-9fe2-826a0e5030c6}, !- Handle
  Site 1,                                 !- Name
  ,                                       !- Latitude {deg}
  ,                                       !- Longitude {deg}
  ,                                       !- Time Zone {hr}
  ,                                       !- Elevation {m}
  City;                                   !- Terrain

OS:SimulationControl,
  {933339c8-5369-4a3a-adc6-831976fdea61}, !- Handle
  Yes,                                    !- Do Zone Sizing Calculation
  Yes,                                    !- Do System Sizing Calculation
  Yes,                                    !- Do Plant Sizing Calculation
  No,                                     !- Run Simulation for Sizing Periods
  Yes,                                    !- Run Simulation for Weather File Run Periods
  ,                                       !- Loads Convergence Tolerance Value {W}
  ,                                       !- Temperature Convergence Tolerance Value {deltaC}
  FullExteriorWithReflections;            !- Solar Distribution

OS:Sizing:Parameters,
  {92b9a8e1-ca85-4b2e-b02a-94365b9cec30}, !- Handle
  1.25,                                   !- Heating Sizing Factor
  1.15;                                   !- Cooling Sizing Factor

OS:Timestep,
  {1991c7d9-6058-4ed9-bad7-32de6a7c47fc}, !- Handle
  6;                                      !- Number of Timesteps per Hour

OS:ShadowCalculation,
  {73c423f5-8d0c-4053-b1ed-80bd0093263c}, !- Handle
  PolygonClipping,                        !- Shading Calculation Method
  Periodic,                               !- Shading Calculation Update Frequency Method
  30,                                     !- Shading Calculation Update Frequency
  15000,                                  !- Maximum Figures in Shadow Overlap Calculations
  ,                                       !- Polygon Clipping Algorithm
  512,                                    !- Pixel Counting Resolution
  ,                                       !- Sky Diffuse Modeling Algorithm
  No,                                     !- Output External Shading Calculation Results
  No,                                     !- Disable Self-Shading Within Shading Zone Groups
  No;                                     !- Disable Self-Shading From Shading Zone Groups to Other Zones

OS:HeatBalanceAlgorithm,
  {f5a2d07c-56d6-4d67-934b-5c268bf01415}, !- Handle
  ConductionTransferFunction,             !- Algorithm
  200;                                    !- Surface Temperature Upper Limit {C}

OS:RunPeriod,
  {62f7480f-bf32-4ed0-8904-d333c4c915d6}, !- Handle
  Run Period 1,                           !- Name
  1,                                      !- Begin Month
  1,                                      !- Begin Day of Month
  1,                                      !- End Month
  31,                                     !- End Day of Month
  ,                                       !- Use Weather File Holidays and Special Days
  ,                                       !- Use Weather File Daylight Saving Period
  ,                                       !- Apply Weekend Holiday Rule
  ,                                       !- Use Weather File Rain Indicators
  ,                                       !- Use Weather File Snow Indicators
  ;                                       !- Number of Times Runperiod to be Repeated

OS:LifeCycleCost:Parameters,
  {ee024dcb-8120-48b7-9d0d-0ae6f94ccca9}, !- Handle
  ,                                       !- Analysis Type
  ,                                       !- Discounting Convention
  ,                                       !- Inflation Approach
  ,                                       !- Real Discount Rate
  ,                                       !- Nominal Discount Rate
  ,                                       !- Inflation
  ,                                       !- Base Date Month
  ,                                       !- Base Date Year
  ,                                       !- Service Date Month
  ,                                       !- Service Date Year
  ;                                       !- Length of Study Period in Years

OS:WeatherFile,
  {c3c68a20-d49c-4787-8eca-57c2ceb25164}, !- Handle
  Boston Logan IntL Arpt,                 !- City
  MA,                                     !- State Province Region
  USA,                                    !- Country
  TMY3,                                   !- Data Source
  725090,                                 !- WMO Number
  42.37,                                  !- Latitude {deg}
  -71.02,                                 !- Longitude {deg}
  -5,                                     !- Time Zone {hr}
  6,                                      !- Elevation {m}
  C:/Users/Administrator/ladybug_tools/resources/weather/USA_MA_Boston-Logan.Intl.AP.725090_TMY3/USA_MA_Boston-Logan.Intl.AP.725090_TMY3.epw, !- Url
  B65824C3;                               !- Checksum

OS:ScheduleTypeLimits,
  {60d15283-4b97-464d-825b-c0828652906b}, !- Handle
  Temperature,                            !- Name
  -273.15,                                !- Lower Limit Value
  ,                                       !- Upper Limit Value
  Continuous,                             !- Numeric Type
  Temperature;                            !- Unit Type

OS:ScheduleTypeLimits,
  {ec038117-f567-4b19-828b-a256f106ee58}, !- Handle
  Activity Level,                         !- Name
  0,                                      !- Lower Limit Value
  ,                                       !- Upper Limit Value
  Continuous,                             !- Numeric Type
  ActivityLevel;                          !- Unit Type

OS:ScheduleTypeLimits,
  {35395ef1-08ee-4d8e-8c38-a08dab7fb87d}, !- Handle
  Fractional,                             !- Name
  0,                                      !- Lower Limit Value
  1,                                      !- Upper Limit Value
  Continuous,                             !- Numeric Type
  Dimensionless;                          !- Unit Type

OS:Schedule:Ruleset,
  {4d03dd89-8bc3-4f3a-b60c-da4f0b75a90d}, !- Handle
  Generic Office Infiltration,            !- Name
  {35395ef1-08ee-4d8e-8c38-a08dab7fb87d}, !- Schedule Type Limits Name
  {2c92fd74-e487-462f-be33-edfaee93416d}, !- Default Day Schedule Name
  {2a41a934-7bfc-4c4e-88d9-e5add82cc435}, !- Summer Design Day Schedule Name
  {9e544fd4-c7af-4ade-8d35-5a8f04a12ec7}, !- Winter Design Day Schedule Name
  {3d2b8720-24ef-4078-91b0-ab66065ec06e}; !- Holiday Schedule Name

OS:Schedule:Day,
  {2c92fd74-e487-462f-be33-edfaee93416d}, !- Handle
  Schedule Day 1,                         !- Name
  {35395ef1-08ee-4d8e-8c38-a08dab7fb87d}, !- Schedule Type Limits Name
  ,                                       !- Interpolate to Timestep
  24,                                     !- Hour 1
  0,                                      !- Minute 1
  1;                                      !- Value Until Time 1

OS:Schedule:Day,
  {d241b9f6-6b0d-4569-a056-f73360db728b}, !- Handle
  OfficeMedium INFIL_SCH_PNNL_Default,    !- Name
  {35395ef1-08ee-4d8e-8c38-a08dab7fb87d}, !- Schedule Type Limits Name
  ,                                       !- Interpolate to Timestep
  24,                                     !- Hour 1
  0,                                      !- Minute 1
  1;                                      !- Value Until Time 1

OS:Schedule:Day,
  {03c132e3-68b3-44be-80a6-741440f0605f}, !- Handle
  OfficeMedium INFIL_SCH_PNNL_Wkdy_SmrDsn, !- Name
  {35395ef1-08ee-4d8e-8c38-a08dab7fb87d}, !- Schedule Type Limits Name
  ,                                       !- Interpolate to Timestep
  6,                                      !- Hour 1
  0,                                      !- Minute 1
  1,                                      !- Value Until Time 1
  22,                                     !- Hour 2
  0,                                      !- Minute 2
  0.25,                                   !- Value Until Time 2
  24,                                     !- Hour 3
  0,                                      !- Minute 3
  1;                                      !- Value Until Time 3

OS:Schedule:Day,
  {ffbe36be-ba8d-4488-ae18-dd6e407ee833}, !- Handle
  OfficeMedium INFIL_SCH_PNNL_Sat_WntrDsn, !- Name
  {35395ef1-08ee-4d8e-8c38-a08dab7fb87d}, !- Schedule Type Limits Name
  ,                                       !- Interpolate to Timestep
  6,                                      !- Hour 1
  0,                                      !- Minute 1
  1,                                      !- Value Until Time 1
  18,                                     !- Hour 2
  0,                                      !- Minute 2
  0.25,                                   !- Value Until Time 2
  24,                                     !- Hour 3
  0,                                      !- Minute 3
  1;                                      !- Value Until Time 3

OS:Schedule:Day,
  {9da1fe10-7ef7-447c-8047-c2929fb7cba5}, !- Handle
  OfficeMedium INFIL_SCH_PNNL_Wkdy,       !- Name
  {35395ef1-08ee-4d8e-8c38-a08dab7fb87d}, !- Schedule Type Limits Name
  ,                                       !- Interpolate to Timestep
  6,                                      !- Hour 1
  0,                                      !- Minute 1
  1,                                      !- Value Until Time 1
  22,                                     !- Hour 2
  0,                                      !- Minute 2
  0.25,                                   !- Value Until Time 2
  24,                                     !- Hour 3
  0,                                      !- Minute 3
  1;                                      !- Value Until Time 3

OS:Schedule:Day,
  {9bf590a6-bada-4f1f-b00f-0048128b47c3}, !- Handle
  OfficeMedium INFIL_SCH_PNNL_Sat,        !- Name
  {35395ef1-08ee-4d8e-8c38-a08dab7fb87d}, !- Schedule Type Limits Name
  ,                                       !- Interpolate to Timestep
  6,                                      !- Hour 1
  0,                                      !- Minute 1
  1,                                      !- Value Until Time 1
  18,                                     !- Hour 2
  0,                                      !- Minute 2
  0.25,                                   !- Value Until Time 2
  24,                                     !- Hour 3
  0,                                      !- Minute 3
  1;                                      !- Value Until Time 3

OS:Schedule:Day,
  {3d2b8720-24ef-4078-91b0-ab66065ec06e}, !- Handle
  OfficeMedium INFIL_SCH_PNNL_Default 1,  !- Name
  {35395ef1-08ee-4d8e-8c38-a08dab7fb87d}, !- Schedule Type Limits Name
  ,                                       !- Interpolate to Timestep
  24,                                     !- Hour 1
  0,                                      !- Minute 1
  1;                                      !- Value Until Time 1

OS:Schedule:Day,
  {2a41a934-7bfc-4c4e-88d9-e5add82cc435}, !- Handle
  OfficeMedium INFIL_SCH_PNNL_Wkdy_SmrDsn 1, !- Name
  {35395ef1-08ee-4d8e-8c38-a08dab7fb87d}, !- Schedule Type Limits Name
  ,                                       !- Interpolate to Timestep
  6,                                      !- Hour 1
  0,                                      !- Minute 1
  1,                                      !- Value Until Time 1
  22,                                     !- Hour 2
  0,                                      !- Minute 2
  0.25,                                   !- Value Until Time 2
  24,                                     !- Hour 3
  0,                                      !- Minute 3
  1;                                      !- Value Until Time 3

OS:Schedule:Day,
  {9e544fd4-c7af-4ade-8d35-5a8f04a12ec7}, !- Handle
  OfficeMedium INFIL_SCH_PNNL_Sat_WntrDsn 1, !- Name
  {35395ef1-08ee-4d8e-8c38-a08dab7fb87d}, !- Schedule Type Limits Name
  ,                                       !- Interpolate to Timestep
  6,                                      !- Hour 1
  0,                                      !- Minute 1
  1,                                      !- Value Until Time 1
  18,                                     !- Hour 2
  0,                                      !- Minute 2
  0.25,                                   !- Value Until Time 2
  24,                                     !- Hour 3
  0,                                      !- Minute 3
  1;                                      !- Value Until Time 3

OS:Schedule:Rule,
  {7a9d7341-30e6-40de-aee7-2762c4b528e5}, !- Handle
  Schedule Rule 1,                        !- Name
  {4d03dd89-8bc3-4f3a-b60c-da4f0b75a90d}, !- Schedule Ruleset Name
  0,                                      !- Rule Order
  {2499c8f8-342b-442b-afe5-ea364ae1b282}, !- Day Schedule Name
  No,                                     !- Apply Sunday
  Yes,                                    !- Apply Monday
  Yes,                                    !- Apply Tuesday
  Yes,                                    !- Apply Wednesday
  Yes,                                    !- Apply Thursday
  Yes,                                    !- Apply Friday
  No,                                     !- Apply Saturday
  DateRange,                              !- Date Specification Type
  1,                                      !- Start Month
  1,                                      !- Start Day
  12,                                     !- End Month
  31;                                     !- End Day

OS:Schedule:Day,
  {2499c8f8-342b-442b-afe5-ea364ae1b282}, !- Handle
  Schedule Day 2,                         !- Name
  {35395ef1-08ee-4d8e-8c38-a08dab7fb87d}, !- Schedule Type Limits Name
  ,                                       !- Interpolate to Timestep
  6,                                      !- Hour 1
  0,                                      !- Minute 1
  1,                                      !- Value Until Time 1
  22,                                     !- Hour 2
  0,                                      !- Minute 2
  0.25,                                   !- Value Until Time 2
  24,                                     !- Hour 3
  0,                                      !- Minute 3
  1;                                      !- Value Until Time 3

OS:YearDescription,
  {6960dd8c-7ba8-4d3f-86da-78f3beacf3ed}, !- Handle
  ,                                       !- Calendar Year
  Sunday;                                 !- Day of Week for Start Day

OS:Schedule:Rule,
  {a9053a31-fadb-47eb-adc2-b67f65b1e10c}, !- Handle
  Schedule Rule 2,                        !- Name
  {4d03dd89-8bc3-4f3a-b60c-da4f0b75a90d}, !- Schedule Ruleset Name
  1,                                      !- Rule Order
  {8ceb91d3-11b1-4953-92fa-9b5798831168}, !- Day Schedule Name
  No,                                     !- Apply Sunday
  No,                                     !- Apply Monday
  No,                                     !- Apply Tuesday
  No,                                     !- Apply Wednesday
  No,                                     !- Apply Thursday
  No,                                     !- Apply Friday
  Yes,                                    !- Apply Saturday
  DateRange,                              !- Date Specification Type
  1,                                      !- Start Month
  1,                                      !- Start Day
  12,                                     !- End Month
  31;                                     !- End Day

OS:Schedule:Day,
  {8ceb91d3-11b1-4953-92fa-9b5798831168}, !- Handle
  Schedule Day 3,                         !- Name
  {35395ef1-08ee-4d8e-8c38-a08dab7fb87d}, !- Schedule Type Limits Name
  ,                                       !- Interpolate to Timestep
  6,                                      !- Hour 1
  0,                                      !- Minute 1
  1,                                      !- Value Until Time 1
  18,                                     !- Hour 2
  0,                                      !- Minute 2
  0.25,                                   !- Value Until Time 2
  24,                                     !- Hour 3
  0,                                      !- Minute 3
  1;                                      !- Value Until Time 3

OS:Schedule:Ruleset,
  {3e6f7e1e-564c-4b9e-8899-aebf6cf4f61e}, !- Handle
  Generic Office Heating,                 !- Name
  {60d15283-4b97-464d-825b-c0828652906b}, !- Schedule Type Limits Name
  {70ff7ac5-b89a-494b-9e53-23328923ef21}, !- Default Day Schedule Name
  {7bac28fd-af54-4707-a2a0-bc57c5908139}, !- Summer Design Day Schedule Name
  {64708549-7b34-4bdd-963f-26348aa58a92}, !- Winter Design Day Schedule Name
  {6d0e48cc-4433-481e-b83a-8479c619d3f1}; !- Holiday Schedule Name

OS:Schedule:Day,
  {70ff7ac5-b89a-494b-9e53-23328923ef21}, !- Handle
  Schedule Day 4,                         !- Name
  {60d15283-4b97-464d-825b-c0828652906b}, !- Schedule Type Limits Name
  ,                                       !- Interpolate to Timestep
  24,                                     !- Hour 1
  0,                                      !- Minute 1
  15.6;                                   !- Value Until Time 1

OS:Schedule:Day,
  {f4614f1c-1268-42cd-946b-c8387b9b6642}, !- Handle
  OfficeMedium HTGSETP_SCH_YES_OPTIMUM_Default, !- Name
  {60d15283-4b97-464d-825b-c0828652906b}, !- Schedule Type Limits Name
  ,                                       !- Interpolate to Timestep
  24,                                     !- Hour 1
  0,                                      !- Minute 1
  15.6;                                   !- Value Until Time 1

OS:Schedule:Day,
  {063f3658-1b78-44df-867b-e749ca3df840}, !- Handle
  OfficeMedium HTGSETP_SCH_YES_OPTIMUM_Default_SmrDsn, !- Name
  {60d15283-4b97-464d-825b-c0828652906b}, !- Schedule Type Limits Name
  ,                                       !- Interpolate to Timestep
  24,                                     !- Hour 1
  0,                                      !- Minute 1
  15.6;                                   !- Value Until Time 1

OS:Schedule:Day,
  {92cb07b6-a5ca-4f1a-b14b-f6cbf6b97dbb}, !- Handle
  OfficeMedium HTGSETP_SCH_YES_OPTIMUM_WntrDsn, !- Name
  {60d15283-4b97-464d-825b-c0828652906b}, !- Schedule Type Limits Name
  ,                                       !- Interpolate to Timestep
  5,                                      !- Hour 1
  0,                                      !- Minute 1
  15.6,                                   !- Value Until Time 1
  6,                                      !- Hour 2
  0,                                      !- Minute 2
  17.6,                                   !- Value Until Time 2
  7,                                      !- Hour 3
  0,                                      !- Minute 3
  19.6,                                   !- Value Until Time 3
  22,                                     !- Hour 4
  0,                                      !- Minute 4
  21,                                     !- Value Until Time 4
  24,                                     !- Hour 5
  0,                                      !- Minute 5
  15.6;                                   !- Value Until Time 5

OS:Schedule:Day,
  {10d71256-676a-4112-9a16-e203cfe9f595}, !- Handle
  OfficeMedium HTGSETP_SCH_YES_OPTIMUM_Wkdy, !- Name
  {60d15283-4b97-464d-825b-c0828652906b}, !- Schedule Type Limits Name
  ,                                       !- Interpolate to Timestep
  5,                                      !- Hour 1
  0,                                      !- Minute 1
  15.6,                                   !- Value Until Time 1
  6,                                      !- Hour 2
  0,                                      !- Minute 2
  17.8,                                   !- Value Until Time 2
  7,                                      !- Hour 3
  0,                                      !- Minute 3
  20,                                     !- Value Until Time 3
  22,                                     !- Hour 4
  0,                                      !- Minute 4
  21,                                     !- Value Until Time 4
  24,                                     !- Hour 5
  0,                                      !- Minute 5
  15.6;                                   !- Value Until Time 5

OS:Schedule:Day,
  {3c9bacf4-c46c-4145-bf73-fac75c29ab34}, !- Handle
  OfficeMedium HTGSETP_SCH_YES_OPTIMUM_Sat, !- Name
  {60d15283-4b97-464d-825b-c0828652906b}, !- Schedule Type Limits Name
  ,                                       !- Interpolate to Timestep
  5,                                      !- Hour 1
  0,                                      !- Minute 1
  15.6,                                   !- Value Until Time 1
  6,                                      !- Hour 2
  0,                                      !- Minute 2
  17.8,                                   !- Value Until Time 2
  7,                                      !- Hour 3
  0,                                      !- Minute 3
  20,                                     !- Value Until Time 3
  17,                                     !- Hour 4
  0,                                      !- Minute 4
  21,                                     !- Value Until Time 4
  24,                                     !- Hour 5
  0,                                      !- Minute 5
  15.6;                                   !- Value Until Time 5

OS:Schedule:Day,
  {6d0e48cc-4433-481e-b83a-8479c619d3f1}, !- Handle
  OfficeMedium HTGSETP_SCH_YES_OPTIMUM_Default 1, !- Name
  {60d15283-4b97-464d-825b-c0828652906b}, !- Schedule Type Limits Name
  ,                                       !- Interpolate to Timestep
  24,                                     !- Hour 1
  0,                                      !- Minute 1
  15.6;                                   !- Value Until Time 1

OS:Schedule:Day,
  {7bac28fd-af54-4707-a2a0-bc57c5908139}, !- Handle
  OfficeMedium HTGSETP_SCH_YES_OPTIMUM_Default_SmrDsn 1, !- Name
  {60d15283-4b97-464d-825b-c0828652906b}, !- Schedule Type Limits Name
  ,                                       !- Interpolate to Timestep
  24,                                     !- Hour 1
  0,                                      !- Minute 1
  15.6;                                   !- Value Until Time 1

OS:Schedule:Day,
  {64708549-7b34-4bdd-963f-26348aa58a92}, !- Handle
  OfficeMedium HTGSETP_SCH_YES_OPTIMUM_WntrDsn 1, !- Name
  {60d15283-4b97-464d-825b-c0828652906b}, !- Schedule Type Limits Name
  ,                                       !- Interpolate to Timestep
  5,                                      !- Hour 1
  0,                                      !- Minute 1
  15.6,                                   !- Value Until Time 1
  6,                                      !- Hour 2
  0,                                      !- Minute 2
  17.6,                                   !- Value Until Time 2
  7,                                      !- Hour 3
  0,                                      !- Minute 3
  19.6,                                   !- Value Until Time 3
  22,                                     !- Hour 4
  0,                                      !- Minute 4
  21,                                     !- Value Until Time 4
  24,                                     !- Hour 5
  0,                                      !- Minute 5
  15.6;                                   !- Value Until Time 5

OS:Schedule:Rule,
  {ca38f73f-d750-413e-8372-b510c330096c}, !- Handle
  Schedule Rule 3,                        !- Name
  {3e6f7e1e-564c-4b9e-8899-aebf6cf4f61e}, !- Schedule Ruleset Name
  0,                                      !- Rule Order
  {11f5d57f-93e6-418f-b3da-87f4c4b18546}, !- Day Schedule Name
  No,                                     !- Apply Sunday
  Yes,                                    !- Apply Monday
  Yes,                                    !- Apply Tuesday
  Yes,                                    !- Apply Wednesday
  Yes,                                    !- Apply Thursday
  Yes,                                    !- Apply Friday
  No,                                     !- Apply Saturday
  DateRange,                              !- Date Specification Type
  1,                                      !- Start Month
  1,                                      !- Start Day
  12,                                     !- End Month
  31;                                     !- End Day

OS:Schedule:Day,
  {11f5d57f-93e6-418f-b3da-87f4c4b18546}, !- Handle
  Schedule Day 5,                         !- Name
  {60d15283-4b97-464d-825b-c0828652906b}, !- Schedule Type Limits Name
  ,                                       !- Interpolate to Timestep
  5,                                      !- Hour 1
  0,                                      !- Minute 1
  15.6,                                   !- Value Until Time 1
  6,                                      !- Hour 2
  0,                                      !- Minute 2
  17.8,                                   !- Value Until Time 2
  7,                                      !- Hour 3
  0,                                      !- Minute 3
  20,                                     !- Value Until Time 3
  22,                                     !- Hour 4
  0,                                      !- Minute 4
  21,                                     !- Value Until Time 4
  24,                                     !- Hour 5
  0,                                      !- Minute 5
  15.6;                                   !- Value Until Time 5

OS:Schedule:Rule,
  {6ff064fb-1d90-4fcc-bd5e-4dd7543a3412}, !- Handle
  Schedule Rule 4,                        !- Name
  {3e6f7e1e-564c-4b9e-8899-aebf6cf4f61e}, !- Schedule Ruleset Name
  1,                                      !- Rule Order
  {9b37b0e3-6da7-4a17-ad28-caa231e2a081}, !- Day Schedule Name
  No,                                     !- Apply Sunday
  No,                                     !- Apply Monday
  No,                                     !- Apply Tuesday
  No,                                     !- Apply Wednesday
  No,                                     !- Apply Thursday
  No,                                     !- Apply Friday
  Yes,                                    !- Apply Saturday
  DateRange,                              !- Date Specification Type
  1,                                      !- Start Month
  1,                                      !- Start Day
  12,                                     !- End Month
  31;                                     !- End Day

OS:Schedule:Day,
  {9b37b0e3-6da7-4a17-ad28-caa231e2a081}, !- Handle
  Schedule Day 6,                         !- Name
  {60d15283-4b97-464d-825b-c0828652906b}, !- Schedule Type Limits Name
  ,                                       !- Interpolate to Timestep
  5,                                      !- Hour 1
  0,                                      !- Minute 1
  15.6,                                   !- Value Until Time 1
  6,                                      !- Hour 2
  0,                                      !- Minute 2
  17.8,                                   !- Value Until Time 2
  7,                                      !- Hour 3
  0,                                      !- Minute 3
  20,                                     !- Value Until Time 3
  17,                                     !- Hour 4
  0,                                      !- Minute 4
  21,                                     !- Value Until Time 4
  24,                                     !- Hour 5
  0,                                      !- Minute 5
  15.6;                                   !- Value Until Time 5

OS:Schedule:Ruleset,
  {1710e809-6359-424e-bbbc-2bebd350c736}, !- Handle
  Generic Office Equipment,               !- Name
  {35395ef1-08ee-4d8e-8c38-a08dab7fb87d}, !- Schedule Type Limits Name
  {7eb55133-3c17-4e16-aee4-0522c6fb8fa3}, !- Default Day Schedule Name
  {cd233fd4-2ad6-429b-9bc2-4537456f45a0}, !- Summer Design Day Schedule Name
  {caea689a-ac72-44d0-8870-dca198ee155f}, !- Winter Design Day Schedule Name
  {7cf70c6d-d01c-4347-93ce-0e67284fad8b}; !- Holiday Schedule Name

OS:Schedule:Day,
  {7eb55133-3c17-4e16-aee4-0522c6fb8fa3}, !- Handle
  Schedule Day 7,                         !- Name
  {35395ef1-08ee-4d8e-8c38-a08dab7fb87d}, !- Schedule Type Limits Name
  ,                                       !- Interpolate to Timestep