
OS:Version,
  {7315fe92-6b4b-4f35-b34a-bd91973c1ee6}, !- Handle
  3.0.1;                                  !- Version Identifier

OS:Building,
  {ea5c1d48-2376-4d9d-8e0e-b356948cd5c5}, !- Handle
  Building 1,                             !- Name
  ,                                       !- Building Sector Type
  -0,                                     !- North Axis {deg}
  ,                                       !- Nominal Floor to Floor Height {m}
  ,                                       !- Space Type Name
  {6eecd86e-20b6-4060-984d-00476116c547}, !- Default Construction Set Name
  ,                                       !- Default Schedule Set Name
  ,                                       !- Standards Number of Stories
  ,                                       !- Standards Number of Above Ground Stories
  ,                                       !- Standards Template
  MediumOffice;                           !- Standards Building Type

OS:Facility,
  {11f205b9-b2d0-4b2b-b5ca-7be16a45d243}; !- Handle

OS:Site,
  {f0dbcced-faf5-4dcd-b90c-a3b627b5493c}, !- Handle
  Site 1,                                 !- Name
  ,                                       !- Latitude {deg}
  ,                                       !- Longitude {deg}
  ,                                       !- Time Zone {hr}
  ,                                       !- Elevation {m}
  City;                                   !- Terrain

OS:SimulationControl,
  {c5ff8267-29f3-45d4-ac26-034417cc0fab}, !- Handle
  Yes,                                    !- Do Zone Sizing Calculation
  Yes,                                    !- Do System Sizing Calculation
  Yes,                                    !- Do Plant Sizing Calculation
  No,                                     !- Run Simulation for Sizing Periods
  Yes,                                    !- Run Simulation for Weather File Run Periods
  ,                                       !- Loads Convergence Tolerance Value {W}
  ,                                       !- Temperature Convergence Tolerance Value {deltaC}
  FullExteriorWithReflections;            !- Solar Distribution

OS:Sizing:Parameters,
  {ae8e07af-6d75-4432-b4d7-f776b7c9f02e}, !- Handle
  1.25,                                   !- Heating Sizing Factor
  1.15;                                   !- Cooling Sizing Factor

OS:Timestep,
  {b002ba27-59ff-4a14-a519-86ebf0b65d57}, !- Handle
  6;                                      !- Number of Timesteps per Hour

OS:ShadowCalculation,
  {0be9e564-fdc7-4992-8724-0b6f80a585e9}, !- Handle
  PolygonClipping,                        !- Shading Calculation Method
  Periodic,                               !- Shading Calculation Update Frequency Method
  30,                                     !- Shading Calculation Update Frequency
  15000,                                  !- Maximum Figures in Shadow Overlap Calculations
  ,                                       !- Polygon Clipping Algorithm
  512,                                    !- Pixel Counting Resolution
  ,                                       !- Sky Diffuse Modeling Algorithm
  No,                                     !- Output External Shading Calculation Results
  No,                                     !- Disable Self-Shading Within Shading Zone Groups
  No;                                     !- Disable Self-Shading From Shading Zone Groups to Other Zones

OS:HeatBalanceAlgorithm,
  {9d84b552-9ea6-46d4-aa54-14df54013eba}, !- Handle
  ConductionTransferFunction,             !- Algorithm
  200;                                    !- Surface Temperature Upper Limit {C}

OS:RunPeriod,
  {9e41a15e-5c07-4da6-bc96-b40484366c0f}, !- Handle
  Run Period 1,                           !- Name
  1,                                      !- Begin Month
  1,                                      !- Begin Day of Month
  1,                                      !- End Month
  31,                                     !- End Day of Month
  ,                                       !- Use Weather File Holidays and Special Days
  ,                                       !- Use Weather File Daylight Saving Period
  ,                                       !- Apply Weekend Holiday Rule
  ,                                       !- Use Weather File Rain Indicators
  ,                                       !- Use Weather File Snow Indicators
  ;                                       !- Number of Times Runperiod to be Repeated

OS:LifeCycleCost:Parameters,
  {501591fb-fb62-466a-ae65-a8f75c95d25f}, !- Handle
  ,                                       !- Analysis Type
  ,                                       !- Discounting Convention
  ,                                       !- Inflation Approach
  ,                                       !- Real Discount Rate
  ,                                       !- Nominal Discount Rate
  ,                                       !- Inflation
  ,                                       !- Base Date Month
  ,                                       !- Base Date Year
  ,                                       !- Service Date Month
  ,                                       !- Service Date Year
  ;                                       !- Length of Study Period in Years

OS:WeatherFile,
  {cfead1e0-c314-4015-9220-dd54ecbb93f7}, !- Handle
  Boston Logan IntL Arpt,                 !- City
  MA,                                     !- State Province Region
  USA,                                    !- Country
  TMY3,                                   !- Data Source
  725090,                                 !- WMO Number
  42.37,                                  !- Latitude {deg}
  -71.02,                                 !- Longitude {deg}
  -5,                                     !- Time Zone {hr}
  6,                                      !- Elevation {m}
  C:/Users/Administrator/ladybug_tools/resources/weather/USA_MA_Boston-Logan.Intl.AP.725090_TMY3/USA_MA_Boston-Logan.Intl.AP.725090_TMY3.epw, !- Url
  B65824C3;                               !- Checksum

OS:ScheduleTypeLimits,
  {ae5a7472-7151-42f1-9229-344745323684}, !- Handle
  Temperature,                            !- Name
  -273.15,                                !- Lower Limit Value
  ,                                       !- Upper Limit Value
  Continuous,                             !- Numeric Type
  Temperature;                            !- Unit Type

OS:ScheduleTypeLimits,
  {2398fa12-f884-429f-bb5a-a71bf863c00b}, !- Handle
  Activity Level,                         !- Name
  0,                                      !- Lower Limit Value
  ,                                       !- Upper Limit Value
  Continuous,                             !- Numeric Type
  ActivityLevel;                          !- Unit Type

OS:ScheduleTypeLimits,
  {f1d12e28-4309-473a-bc86-790edc9db8d2}, !- Handle
  Fractional,                             !- Name
  0,                                      !- Lower Limit Value
  1,                                      !- Upper Limit Value
  Continuous,                             !- Numeric Type
  Dimensionless;                          !- Unit Type

OS:Schedule:Ruleset,
  {fa7d0572-9513-4365-a90f-c9a534565573}, !- Handle
  Generic Office Infiltration,            !- Name
  {f1d12e28-4309-473a-bc86-790edc9db8d2}, !- Schedule Type Limits Name
  {521f4754-b51f-4dec-8dbb-594b699f7aac}, !- Default Day Schedule Name
  {09c167fd-4101-4b16-bd97-0b885f6968e0}, !- Summer Design Day Schedule Name
  {07a07f52-7c8f-4114-9b23-a2302f08e3af}, !- Winter Design Day Schedule Name
  {cedd6a5c-4430-4827-bf10-8da493169668}; !- Holiday Schedule Name

OS:Schedule:Day,
  {521f4754-b51f-4dec-8dbb-594b699f7aac}, !- Handle
  Schedule Day 1,                         !- Name
  {f1d12e28-4309-473a-bc86-790edc9db8d2}, !- Schedule Type Limits Name
  ,                                       !- Interpolate to Timestep
  24,                                     !- Hour 1
  0,                                      !- Minute 1
  1;                                      !- Value Until Time 1

OS:Schedule:Day,
  {558ef9de-905a-49fc-86a8-5537082225da}, !- Handle
  OfficeMedium INFIL_SCH_PNNL_Default,    !- Name
  {f1d12e28-4309-473a-bc86-790edc9db8d2}, !- Schedule Type Limits Name
  ,                                       !- Interpolate to Timestep
  24,                                     !- Hour 1
  0,                                      !- Minute 1
  1;                                      !- Value Until Time 1

OS:Schedule:Day,
  {01785efc-4547-40c1-97e0-ec4ca0474afb}, !- Handle
  OfficeMedium INFIL_SCH_PNNL_Wkdy_SmrDsn, !- Name
  {f1d12e28-4309-473a-bc86-790edc9db8d2}, !- Schedule Type Limits Name
  ,                                       !- Interpolate to Timestep
  6,                                      !- Hour 1
  0,                                      !- Minute 1
  1,                                      !- Value Until Time 1
  22,                                     !- Hour 2
  0,                                      !- Minute 2
  0.25,                                   !- Value Until Time 2
  24,                                     !- Hour 3
  0,                                      !- Minute 3
  1;                                      !- Value Until Time 3

OS:Schedule:Day,
  {33fda8a3-a8c3-4448-ad1b-37b8517fb8d7}, !- Handle
  OfficeMedium INFIL_SCH_PNNL_Sat_WntrDsn, !- Name
  {f1d12e28-4309-473a-bc86-790edc9db8d2}, !- Schedule Type Limits Name
  ,                                       !- Interpolate to Timestep
  6,                                      !- Hour 1
  0,                                      !- Minute 1
  1,                                      !- Value Until Time 1
  18,                                     !- Hour 2
  0,                                      !- Minute 2
  0.25,                                   !- Value Until Time 2
  24,                                     !- Hour 3
  0,                                      !- Minute 3
  1;                                      !- Value Until Time 3

OS:Schedule:Day,
  {b10c1823-0205-4185-9afe-e659dd1dfe38}, !- Handle
  OfficeMedium INFIL_SCH_PNNL_Wkdy,       !- Name
  {f1d12e28-4309-473a-bc86-790edc9db8d2}, !- Schedule Type Limits Name
  ,                                       !- Interpolate to Timestep
  6,                                      !- Hour 1
  0,                                      !- Minute 1
  1,                                      !- Value Until Time 1
  22,                                     !- Hour 2
  0,                                      !- Minute 2
  0.25,                                   !- Value Until Time 2
  24,                                     !- Hour 3
  0,                                      !- Minute 3
  1;                                      !- Value Until Time 3

OS:Schedule:Day,
  {0b85d4bd-fc97-47d3-964e-3d194342a996}, !- Handle
  OfficeMedium INFIL_SCH_PNNL_Sat,        !- Name
  {f1d12e28-4309-473a-bc86-790edc9db8d2}, !- Schedule Type Limits Name
  ,                                       !- Interpolate to Timestep
  6,                                      !- Hour 1
  0,                                      !- Minute 1
  1,                                      !- Value Until Time 1
  18,                                     !- Hour 2
  0,                                      !- Minute 2
  0.25,                                   !- Value Until Time 2
  24,                                     !- Hour 3
  0,                                      !- Minute 3
  1;                                      !- Value Until Time 3

OS:Schedule:Day,
  {cedd6a5c-4430-4827-bf10-8da493169668}, !- Handle
  OfficeMedium INFIL_SCH_PNNL_Default 1,  !- Name
  {f1d12e28-4309-473a-bc86-790edc9db8d2}, !- Schedule Type Limits Name
  ,                                       !- Interpolate to Timestep
  24,                                     !- Hour 1
  0,                                      !- Minute 1
  1;                                      !- Value Until Time 1

OS:Schedule:Day,
  {09c167fd-4101-4b16-bd97-0b885f6968e0}, !- Handle
  OfficeMedium INFIL_SCH_PNNL_Wkdy_SmrDsn 1, !- Name
  {f1d12e28-4309-473a-bc86-790edc9db8d2}, !- Schedule Type Limits Name
  ,                                       !- Interpolate to Timestep
  6,                                      !- Hour 1
  0,                                      !- Minute 1
  1,                                      !- Value Until Time 1
  22,                                     !- Hour 2
  0,                                      !- Minute 2
  0.25,                                   !- Value Until Time 2
  24,                                     !- Hour 3
  0,                                      !- Minute 3
  1;                                      !- Value Until Time 3

OS:Schedule:Day,
  {07a07f52-7c8f-4114-9b23-a2302f08e3af}, !- Handle
  OfficeMedium INFIL_SCH_PNNL_Sat_WntrDsn 1, !- Name
  {f1d12e28-4309-473a-bc86-790edc9db8d2}, !- Schedule Type Limits Name
  ,                                       !- Interpolate to Timestep
  6,                                      !- Hour 1
  0,                                      !- Minute 1
  1,                                      !- Value Until Time 1
  18,                                     !- Hour 2
  0,                                      !- Minute 2
  0.25,                                   !- Value Until Time 2
  24,                                     !- Hour 3
  0,                                      !- Minute 3
  1;                                      !- Value Until Time 3

OS:Schedule:Rule,
  {04747502-b3b6-466c-8a32-74865cc7e54f}, !- Handle
  Schedule Rule 1,                        !- Name
  {fa7d0572-9513-4365-a90f-c9a534565573}, !- Schedule Ruleset Name
  0,                                      !- Rule Order
  {cdf6d8e8-eec4-4f4c-937e-b8b60f695b39}, !- Day Schedule Name
  No,                                     !- Apply Sunday
  Yes,                                    !- Apply Monday
  Yes,                                    !- Apply Tuesday
  Yes,                                    !- Apply Wednesday
  Yes,                                    !- Apply Thursday
  Yes,                                    !- Apply Friday
  No,                                     !- Apply Saturday
  DateRange,                              !- Date Specification Type
  1,                                      !- Start Month
  1,                                      !- Start Day
  12,                                     !- End Month
  31;                                     !- End Day

OS:Schedule:Day,
  {cdf6d8e8-eec4-4f4c-937e-b8b60f695b39}, !- Handle
  Schedule Day 2,                         !- Name
  {f1d12e28-4309-473a-bc86-790edc9db8d2}, !- Schedule Type Limits Name
  ,                                       !- Interpolate to Timestep
  6,                                      !- Hour 1
  0,                                      !- Minute 1
  1,                                      !- Value Until Time 1
  22,                                     !- Hour 2
  0,                                      !- Minute 2
  0.25,                                   !- Value Until Time 2
  24,                                     !- Hour 3
  0,                                      !- Minute 3
  1;                                      !- Value Until Time 3

OS:YearDescription,
  {401ab3ab-8b3a-441a-8f93-8c3db145c29e}, !- Handle
  ,                                       !- Calendar Year
  Sunday;                                 !- Day of Week for Start Day

OS:Schedule:Rule,
  {962958a7-12c8-433f-8e1a-16c3e3c14108}, !- Handle
  Schedule Rule 2,                        !- Name
  {fa7d0572-9513-4365-a90f-c9a534565573}, !- Schedule Ruleset Name
  1,                                      !- Rule Order
  {a7c2075f-8e06-48f4-8204-e9f410565e03}, !- Day Schedule Name
  No,                                     !- Apply Sunday
  No,                                     !- Apply Monday
  No,                                     !- Apply Tuesday
  No,                                     !- Apply Wednesday
  No,                                     !- Apply Thursday
  No,                                     !- Apply Friday
  Yes,                                    !- Apply Saturday
  DateRange,                              !- Date Specification Type
  1,                                      !- Start Month
  1,                                      !- Start Day
  12,                                     !- End Month
  31;                                     !- End Day

OS:Schedule:Day,
  {a7c2075f-8e06-48f4-8204-e9f410565e03}, !- Handle
  Schedule Day 3,                         !- Name
  {f1d12e28-4309-473a-bc86-790edc9db8d2}, !- Schedule Type Limits Name
  ,                                       !- Interpolate to Timestep
  6,                                      !- Hour 1
  0,                                      !- Minute 1
  1,                                      !- Value Until Time 1
  18,                                     !- Hour 2
  0,                                      !- Minute 2
  0.25,                                   !- Value Until Time 2
  24,                                     !- Hour 3
  0,                                      !- Minute 3
  1;                                      !- Value Until Time 3

OS:Schedule:Ruleset,
  {4fb698f7-28a8-4b6a-a6d5-52ea9000fd87}, !- Handle
  Generic Office Heating,                 !- Name
  {ae5a7472-7151-42f1-9229-344745323684}, !- Schedule Type Limits Name
  {66cd92bd-f205-4f41-a497-3d74378f6758}, !- Default Day Schedule Name
  {a4df7e59-38a9-45f5-96b7-ae5573701489}, !- Summer Design Day Schedule Name
  {37f05bae-822e-42fb-bc5a-02c5a3aea610}, !- Winter Design Day Schedule Name
  {6fe96775-4e54-445f-998b-c051c7853373}; !- Holiday Schedule Name

OS:Schedule:Day,
  {66cd92bd-f205-4f41-a497-3d74378f6758}, !- Handle
  Schedule Day 4,                         !- Name
  {ae5a7472-7151-42f1-9229-344745323684}, !- Schedule Type Limits Name
  ,                                       !- Interpolate to Timestep
  24,                                     !- Hour 1
  0,                                      !- Minute 1
  15.6;                                   !- Value Until Time 1

OS:Schedule:Day,
  {d5bc8140-c352-441c-b668-2b3a27a8c8e1}, !- Handle
  OfficeMedium HTGSETP_SCH_YES_OPTIMUM_Default, !- Name
  {ae5a7472-7151-42f1-9229-344745323684}, !- Schedule Type Limits Name
  ,                                       !- Interpolate to Timestep
  24,                                     !- Hour 1
  0,                                      !- Minute 1
  15.6;                                   !- Value Until Time 1

OS:Schedule:Day,
  {6a7479ea-206e-4575-814f-d8278820b182}, !- Handle
  OfficeMedium HTGSETP_SCH_YES_OPTIMUM_Default_SmrDsn, !- Name
  {ae5a7472-7151-42f1-9229-344745323684}, !- Schedule Type Limits Name
  ,                                       !- Interpolate to Timestep
  24,                                     !- Hour 1
  0,                                      !- Minute 1
  15.6;                                   !- Value Until Time 1

OS:Schedule:Day,
  {c4ef859a-a431-4226-ada8-dd096605aa5b}, !- Handle
  OfficeMedium HTGSETP_SCH_YES_OPTIMUM_WntrDsn, !- Name
  {ae5a7472-7151-42f1-9229-344745323684}, !- Schedule Type Limits Name
  ,                                       !- Interpolate to Timestep
  5,                                      !- Hour 1
  0,                                      !- Minute 1
  15.6,                                   !- Value Until Time 1
  6,                                      !- Hour 2
  0,                                      !- Minute 2
  17.6,                                   !- Value Until Time 2
  7,                                      !- Hour 3
  0,                                      !- Minute 3
  19.6,                                   !- Value Until Time 3
  22,                                     !- Hour 4
  0,                                      !- Minute 4
  21,                                     !- Value Until Time 4
  24,                                     !- Hour 5
  0,                                      !- Minute 5
  15.6;                                   !- Value Until Time 5

OS:Schedule:Day,
  {a262e390-6018-4fa2-b2a5-1055c7fb9393}, !- Handle
  OfficeMedium HTGSETP_SCH_YES_OPTIMUM_Wkdy, !- Name
  {ae5a7472-7151-42f1-9229-344745323684}, !- Schedule Type Limits Name
  ,                                       !- Interpolate to Timestep
  5,                                      !- Hour 1
  0,                                      !- Minute 1
  15.6,                                   !- Value Until Time 1
  6,                                      !- Hour 2
  0,                                      !- Minute 2
  17.8,                                   !- Value Until Time 2
  7,                                      !- Hour 3
  0,                                      !- Minute 3
  20,                                     !- Value Until Time 3
  22,                                     !- Hour 4
  0,                                      !- Minute 4
  21,                                     !- Value Until Time 4
  24,                                     !- Hour 5
  0,                                      !- Minute 5
  15.6;                                   !- Value Until Time 5

OS:Schedule:Day,
  {1a1b7223-462b-4e2d-b6dc-10a6da0f324a}, !- Handle
  OfficeMedium HTGSETP_SCH_YES_OPTIMUM_Sat, !- Name
  {ae5a7472-7151-42f1-9229-344745323684}, !- Schedule Type Limits Name
  ,                                       !- Interpolate to Timestep
  5,                                      !- Hour 1
  0,                                      !- Minute 1
  15.6,                                   !- Value Until Time 1
  6,                                      !- Hour 2
  0,                                      !- Minute 2
  17.8,                                   !- Value Until Time 2
  7,                                      !- Hour 3
  0,                                      !- Minute 3
  20,                                     !- Value Until Time 3
  17,                                     !- Hour 4
  0,                                      !- Minute 4
  21,                                     !- Value Until Time 4
  24,                                     !- Hour 5
  0,                                      !- Minute 5
  15.6;                                   !- Value Until Time 5

OS:Schedule:Day,
  {6fe96775-4e54-445f-998b-c051c7853373}, !- Handle
  OfficeMedium HTGSETP_SCH_YES_OPTIMUM_Default 1, !- Name
  {ae5a7472-7151-42f1-9229-344745323684}, !- Schedule Type Limits Name
  ,                                       !- Interpolate to Timestep
  24,                                     !- Hour 1
  0,                                      !- Minute 1
  15.6;                                   !- Value Until Time 1

OS:Schedule:Day,
  {a4df7e59-38a9-45f5-96b7-ae5573701489}, !- Handle
  OfficeMedium HTGSETP_SCH_YES_OPTIMUM_Default_SmrDsn 1, !- Name
  {ae5a7472-7151-42f1-9229-344745323684}, !- Schedule Type Limits Name
  ,                                       !- Interpolate to Timestep
  24,                                     !- Hour 1
  0,                                      !- Minute 1
  15.6;                                   !- Value Until Time 1

OS:Schedule:Day,
  {37f05bae-822e-42fb-bc5a-02c5a3aea610}, !- Handle
  OfficeMedium HTGSETP_SCH_YES_OPTIMUM_WntrDsn 1, !- Name
  {ae5a7472-7151-42f1-9229-344745323684}, !- Schedule Type Limits Name
  ,                                       !- Interpolate to Timestep
  5,                                      !- Hour 1
  0,                                      !- Minute 1
  15.6,                                   !- Value Until Time 1
  6,                                      !- Hour 2
  0,                                      !- Minute 2
  17.6,                                   !- Value Until Time 2
  7,                                      !- Hour 3
  0,                                      !- Minute 3
  19.6,                                   !- Value Until Time 3
  22,                                     !- Hour 4
  0,                                      !- Minute 4
  21,                                     !- Value Until Time 4
  24,                                     !- Hour 5
  0,                                      !- Minute 5
  15.6;                                   !- Value Until Time 5

OS:Schedule:Rule,
  {bb523feb-d202-4b11-a691-75c742829ef6}, !- Handle
  Schedule Rule 3,                        !- Name
  {4fb698f7-28a8-4b6a-a6d5-52ea9000fd87}, !- Schedule Ruleset Name
  0,                                      !- Rule Order
  {1d4ffa0b-4d49-49c7-b50e-e9fb8a16658d}, !- Day Schedule Name
  No,                                     !- Apply Sunday
  Yes,                                    !- Apply Monday
  Yes,                                    !- Apply Tuesday
  Yes,                                    !- Apply Wednesday
  Yes,                                    !- Apply Thursday
  Yes,                                    !- Apply Friday
  No,                                     !- Apply Saturday
  DateRange,                              !- Date Specification Type
  1,                                      !- Start Month
  1,                                      !- Start Day
  12,                                     !- End Month
  31;                                     !- End Day

OS:Schedule:Day,
  {1d4ffa0b-4d49-49c7-b50e-e9fb8a16658d}, !- Handle
  Schedule Day 5,                         !- Name
  {ae5a7472-7151-42f1-9229-344745323684}, !- Schedule Type Limits Name
  ,                                       !- Interpolate to Timestep
  5,                                      !- Hour 1
  0,                                      !- Minute 1
  15.6,                                   !- Value Until Time 1
  6,                                      !- Hour 2
  0,                                      !- Minute 2
  17.8,                                   !- Value Until Time 2
  7,                                      !- Hour 3
  0,                                      !- Minute 3
  20,                                     !- Value Until Time 3
  22,                                     !- Hour 4
  0,                                      !- Minute 4
  21,                                     !- Value Until Time 4
  24,                                     !- Hour 5
  0,                                      !- Minute 5
  15.6;                                   !- Value Until Time 5

OS:Schedule:Rule,
  {7c49b0ba-f66b-4ab1-a63c-94b57c13029f}, !- Handle
  Schedule Rule 4,                        !- Name
  {4fb698f7-28a8-4b6a-a6d5-52ea9000fd87}, !- Schedule Ruleset Name
  1,                                      !- Rule Order
  {0c9f477d-f7cb-47b4-953c-29fff529a4de}, !- Day Schedule Name
  No,                                     !- Apply Sunday
  No,                                     !- Apply Monday
  No,                                     !- Apply Tuesday
  No,                                     !- Apply Wednesday
  No,                                     !- Apply Thursday
  No,                                     !- Apply Friday
  Yes,                                    !- Apply Saturday
  DateRange,                              !- Date Specification Type
  1,                                      !- Start Month
  1,                                      !- Start Day
  12,                                     !- End Month
  31;                                     !- End Day

OS:Schedule:Day,
  {0c9f477d-f7cb-47b4-953c-29fff529a4de}, !- Handle
  Schedule Day 6,                         !- Name
  {ae5a7472-7151-42f1-9229-344745323684}, !- Schedule Type Limits Name
  ,                                       !- Interpolate to Timestep
  5,                                      !- Hour 1
  0,                                      !- Minute 1
  15.6,                                   !- Value Until Time 1
  6,                                      !- Hour 2
  0,                                      !- Minute 2
  17.8,                                   !- Value Until Time 2
  7,                                      !- Hour 3
  0,                                      !- Minute 3
  20,                                     !- Value Until Time 3
  17,                                     !- Hour 4
  0,                                      !- Minute 4
  21,                                     !- Value Until Time 4
  24,                                     !- Hour 5
  0,                                      !- Minute 5
  15.6;                                   !- Value Until Time 5

OS:Schedule:Ruleset,
  {c4d3cca0-9996-477d-bd12-3b67e1f6274d}, !- Handle
  Generic Office Equipment,               !- Name
  {f1d12e28-4309-473a-bc86-790edc9db8d2}, !- Schedule Type Limits Name
  {4341c031-e682-40b1-9e5d-24e170dfdd3f}, !- Default Day Schedule Name
  {c13829b4-15a7-406f-a36b-4e9c1d83928e}, !- Summer Design Day Schedule Name
  {f2122c0d-efb2-4b58-9300-eb07d66166bd}, !- Winter Design Day Schedule Name
  {bf55ff2a-6d38-4fb7-a5b0-c6e11d4979b1}; !- Holiday Schedule Name

OS:Schedule:Day,
  {4341c031-e682-40b1-9e5d-24e170dfdd3f}, !- Handle
  Schedule Day 7,                         !- Name
  {f1d12e28-4309-473a-bc86-790edc9db8d2}, !- Schedule Type Limits Name
  ,                                       !- Interpolate to Timestep