
OS:Version,
  {1106c342-7205-4051-b8b7-481c5b5f70a0}, !- Handle
  3.0.1;                                  !- Version Identifier

OS:Building,
  {a118c30b-52c2-4057-81e0-02ec38ff0f27}, !- Handle
  Building 1,                             !- Name
  ,                                       !- Building Sector Type
  -0,                                     !- North Axis {deg}
  ,                                       !- Nominal Floor to Floor Height {m}
  ,                                       !- Space Type Name
  {e0e40d1d-deae-4efb-9e0e-7e9970af265f}, !- Default Construction Set Name
  ,                                       !- Default Schedule Set Name
  ,                                       !- Standards Number of Stories
  ,                                       !- Standards Number of Above Ground Stories
  ,                                       !- Standards Template
  MediumOffice;                           !- Standards Building Type

OS:Facility,
  {89d798d2-d5c9-42fb-b0f8-2f7922bc4eec}; !- Handle

OS:Site,
  {f51be0a1-bbee-48bd-874e-9d10049ffea8}, !- Handle
  Site 1,                                 !- Name
  ,                                       !- Latitude {deg}
  ,                                       !- Longitude {deg}
  ,                                       !- Time Zone {hr}
  ,                                       !- Elevation {m}
  City;                                   !- Terrain

OS:SimulationControl,
  {6df01ba2-2fce-4773-bf35-a5d0e8916ad2}, !- Handle
  Yes,                                    !- Do Zone Sizing Calculation
  Yes,                                    !- Do System Sizing Calculation
  Yes,                                    !- Do Plant Sizing Calculation
  No,                                     !- Run Simulation for Sizing Periods
  Yes,                                    !- Run Simulation for Weather File Run Periods
  ,                                       !- Loads Convergence Tolerance Value {W}
  ,                                       !- Temperature Convergence Tolerance Value {deltaC}
  FullExteriorWithReflections;            !- Solar Distribution

OS:Sizing:Parameters,
  {128afc1f-3100-4403-b00a-27fc57d46abd}, !- Handle
  1.25,                                   !- Heating Sizing Factor
  1.15;                                   !- Cooling Sizing Factor

OS:Timestep,
  {805225e0-ef22-4128-a02f-4e342c77f032}, !- Handle
  6;                                      !- Number of Timesteps per Hour

OS:ShadowCalculation,
  {df3b9a5a-9d96-48fa-8956-874c77bd66e4}, !- Handle
  PolygonClipping,                        !- Shading Calculation Method
  Periodic,                               !- Shading Calculation Update Frequency Method
  30,                                     !- Shading Calculation Update Frequency
  15000,                                  !- Maximum Figures in Shadow Overlap Calculations
  ,                                       !- Polygon Clipping Algorithm
  512,                                    !- Pixel Counting Resolution
  ,                                       !- Sky Diffuse Modeling Algorithm
  No,                                     !- Output External Shading Calculation Results
  No,                                     !- Disable Self-Shading Within Shading Zone Groups
  No;                                     !- Disable Self-Shading From Shading Zone Groups to Other Zones

OS:HeatBalanceAlgorithm,
  {1961f335-68a3-4da8-bc94-483791bee174}, !- Handle
  ConductionTransferFunction,             !- Algorithm
  200;                                    !- Surface Temperature Upper Limit {C}

OS:RunPeriod,
  {cec0e614-71bd-4ad4-9d19-cd7ad07f0ab8}, !- Handle
  Run Period 1,                           !- Name
  1,                                      !- Begin Month
  1,                                      !- Begin Day of Month
  1,                                      !- End Month
  31,                                     !- End Day of Month
  ,                                       !- Use Weather File Holidays and Special Days
  ,                                       !- Use Weather File Daylight Saving Period
  ,                                       !- Apply Weekend Holiday Rule
  ,                                       !- Use Weather File Rain Indicators
  ,                                       !- Use Weather File Snow Indicators
  ;                                       !- Number of Times Runperiod to be Repeated

OS:LifeCycleCost:Parameters,
  {fd8d9f82-1ced-4a62-ac6f-e129b9d05fe7}, !- Handle
  ,                                       !- Analysis Type
  ,                                       !- Discounting Convention
  ,                                       !- Inflation Approach
  ,                                       !- Real Discount Rate
  ,                                       !- Nominal Discount Rate
  ,                                       !- Inflation
  ,                                       !- Base Date Month
  ,                                       !- Base Date Year
  ,                                       !- Service Date Month
  ,                                       !- Service Date Year
  ;                                       !- Length of Study Period in Years

OS:WeatherFile,
  {ad3fc053-a9f8-4403-86d9-5b7c88d17058}, !- Handle
  Boston Logan IntL Arpt,                 !- City
  MA,                                     !- State Province Region
  USA,                                    !- Country
  TMY3,                                   !- Data Source
  725090,                                 !- WMO Number
  42.37,                                  !- Latitude {deg}
  -71.02,                                 !- Longitude {deg}
  -5,                                     !- Time Zone {hr}
  6,                                      !- Elevation {m}
  C:/Users/Administrator/ladybug_tools/resources/weather/USA_MA_Boston-Logan.Intl.AP.725090_TMY3/USA_MA_Boston-Logan.Intl.AP.725090_TMY3.epw, !- Url
  B65824C3;                               !- Checksum

OS:ScheduleTypeLimits,
  {478e6ad0-255d-4c9e-8d7d-a15e7da539c8}, !- Handle
  Temperature,                            !- Name
  -273.15,                                !- Lower Limit Value
  ,                                       !- Upper Limit Value
  Continuous,                             !- Numeric Type
  Temperature;                            !- Unit Type

OS:ScheduleTypeLimits,
  {06e02c2d-15bb-4dc1-adbf-b7ae5187c1d6}, !- Handle
  Activity Level,                         !- Name
  0,                                      !- Lower Limit Value
  ,                                       !- Upper Limit Value
  Continuous,                             !- Numeric Type
  ActivityLevel;                          !- Unit Type

OS:ScheduleTypeLimits,
  {dc3b7dc4-6717-4189-969d-4d6553bc8a83}, !- Handle
  Fractional,                             !- Name
  0,                                      !- Lower Limit Value
  1,                                      !- Upper Limit Value
  Continuous,                             !- Numeric Type
  Dimensionless;                          !- Unit Type

OS:Schedule:Ruleset,
  {00e72740-42a4-4573-bc81-37402a0d3741}, !- Handle
  Generic Office Infiltration,            !- Name
  {dc3b7dc4-6717-4189-969d-4d6553bc8a83}, !- Schedule Type Limits Name
  {9f6e5383-02e4-47ea-ac5d-db6cc9af37c9}, !- Default Day Schedule Name
  {2ebc5149-4bf0-4a64-bb69-124d357db64c}, !- Summer Design Day Schedule Name
  {48d91a3e-4f2c-482f-99ec-695fe7f89522}, !- Winter Design Day Schedule Name
  {42f9d06b-b732-4371-8375-2ed573154d7b}; !- Holiday Schedule Name

OS:Schedule:Day,
  {9f6e5383-02e4-47ea-ac5d-db6cc9af37c9}, !- Handle
  Schedule Day 1,                         !- Name
  {dc3b7dc4-6717-4189-969d-4d6553bc8a83}, !- Schedule Type Limits Name
  ,                                       !- Interpolate to Timestep
  24,                                     !- Hour 1
  0,                                      !- Minute 1
  1;                                      !- Value Until Time 1

OS:Schedule:Day,
  {934ca965-8f5e-4166-86e4-83a6ea41be62}, !- Handle
  OfficeMedium INFIL_SCH_PNNL_Default,    !- Name
  {dc3b7dc4-6717-4189-969d-4d6553bc8a83}, !- Schedule Type Limits Name
  ,                                       !- Interpolate to Timestep
  24,                                     !- Hour 1
  0,                                      !- Minute 1
  1;                                      !- Value Until Time 1

OS:Schedule:Day,
  {89b658cc-06bc-4677-924a-4fff3d5b3933}, !- Handle
  OfficeMedium INFIL_SCH_PNNL_Wkdy_SmrDsn, !- Name
  {dc3b7dc4-6717-4189-969d-4d6553bc8a83}, !- Schedule Type Limits Name
  ,                                       !- Interpolate to Timestep
  6,                                      !- Hour 1
  0,                                      !- Minute 1
  1,                                      !- Value Until Time 1
  22,                                     !- Hour 2
  0,                                      !- Minute 2
  0.25,                                   !- Value Until Time 2
  24,                                     !- Hour 3
  0,                                      !- Minute 3
  1;                                      !- Value Until Time 3

OS:Schedule:Day,
  {bf01cef8-c839-4803-bc0e-2d9376b786b1}, !- Handle
  OfficeMedium INFIL_SCH_PNNL_Sat_WntrDsn, !- Name
  {dc3b7dc4-6717-4189-969d-4d6553bc8a83}, !- Schedule Type Limits Name
  ,                                       !- Interpolate to Timestep
  6,                                      !- Hour 1
  0,                                      !- Minute 1
  1,                                      !- Value Until Time 1
  18,                                     !- Hour 2
  0,                                      !- Minute 2
  0.25,                                   !- Value Until Time 2
  24,                                     !- Hour 3
  0,                                      !- Minute 3
  1;                                      !- Value Until Time 3

OS:Schedule:Day,
  {41dcb618-a47c-409c-a6bf-c9fa6ac98972}, !- Handle
  OfficeMedium INFIL_SCH_PNNL_Wkdy,       !- Name
  {dc3b7dc4-6717-4189-969d-4d6553bc8a83}, !- Schedule Type Limits Name
  ,                                       !- Interpolate to Timestep
  6,                                      !- Hour 1
  0,                                      !- Minute 1
  1,                                      !- Value Until Time 1
  22,                                     !- Hour 2
  0,                                      !- Minute 2
  0.25,                                   !- Value Until Time 2
  24,                                     !- Hour 3
  0,                                      !- Minute 3
  1;                                      !- Value Until Time 3

OS:Schedule:Day,
  {4c6fc760-e0c8-4db4-ae2d-2dbbab22aac3}, !- Handle
  OfficeMedium INFIL_SCH_PNNL_Sat,        !- Name
  {dc3b7dc4-6717-4189-969d-4d6553bc8a83}, !- Schedule Type Limits Name
  ,                                       !- Interpolate to Timestep
  6,                                      !- Hour 1
  0,                                      !- Minute 1
  1,                                      !- Value Until Time 1
  18,                                     !- Hour 2
  0,                                      !- Minute 2
  0.25,                                   !- Value Until Time 2
  24,                                     !- Hour 3
  0,                                      !- Minute 3
  1;                                      !- Value Until Time 3

OS:Schedule:Day,
  {42f9d06b-b732-4371-8375-2ed573154d7b}, !- Handle
  OfficeMedium INFIL_SCH_PNNL_Default 1,  !- Name
  {dc3b7dc4-6717-4189-969d-4d6553bc8a83}, !- Schedule Type Limits Name
  ,                                       !- Interpolate to Timestep
  24,                                     !- Hour 1
  0,                                      !- Minute 1
  1;                                      !- Value Until Time 1

OS:Schedule:Day,
  {2ebc5149-4bf0-4a64-bb69-124d357db64c}, !- Handle
  OfficeMedium INFIL_SCH_PNNL_Wkdy_SmrDsn 1, !- Name
  {dc3b7dc4-6717-4189-969d-4d6553bc8a83}, !- Schedule Type Limits Name
  ,                                       !- Interpolate to Timestep
  6,                                      !- Hour 1
  0,                                      !- Minute 1
  1,                                      !- Value Until Time 1
  22,                                     !- Hour 2
  0,                                      !- Minute 2
  0.25,                                   !- Value Until Time 2
  24,                                     !- Hour 3
  0,                                      !- Minute 3
  1;                                      !- Value Until Time 3

OS:Schedule:Day,
  {48d91a3e-4f2c-482f-99ec-695fe7f89522}, !- Handle
  OfficeMedium INFIL_SCH_PNNL_Sat_WntrDsn 1, !- Name
  {dc3b7dc4-6717-4189-969d-4d6553bc8a83}, !- Schedule Type Limits Name
  ,                                       !- Interpolate to Timestep
  6,                                      !- Hour 1
  0,                                      !- Minute 1
  1,                                      !- Value Until Time 1
  18,                                     !- Hour 2
  0,                                      !- Minute 2
  0.25,                                   !- Value Until Time 2
  24,                                     !- Hour 3
  0,                                      !- Minute 3
  1;                                      !- Value Until Time 3

OS:Schedule:Rule,
  {cd1e2d8c-46eb-4c2b-bdb4-b884e927101d}, !- Handle
  Schedule Rule 1,                        !- Name
  {00e72740-42a4-4573-bc81-37402a0d3741}, !- Schedule Ruleset Name
  0,                                      !- Rule Order
  {a41d7855-e459-49c3-9f4b-9859dfba13d7}, !- Day Schedule Name
  No,                                     !- Apply Sunday
  Yes,                                    !- Apply Monday
  Yes,                                    !- Apply Tuesday
  Yes,                                    !- Apply Wednesday
  Yes,                                    !- Apply Thursday
  Yes,                                    !- Apply Friday
  No,                                     !- Apply Saturday
  DateRange,                              !- Date Specification Type
  1,                                      !- Start Month
  1,                                      !- Start Day
  12,                                     !- End Month
  31;                                     !- End Day

OS:Schedule:Day,
  {a41d7855-e459-49c3-9f4b-9859dfba13d7}, !- Handle
  Schedule Day 2,                         !- Name
  {dc3b7dc4-6717-4189-969d-4d6553bc8a83}, !- Schedule Type Limits Name
  ,                                       !- Interpolate to Timestep
  6,                                      !- Hour 1
  0,                                      !- Minute 1
  1,                                      !- Value Until Time 1
  22,                                     !- Hour 2
  0,                                      !- Minute 2
  0.25,                                   !- Value Until Time 2
  24,                                     !- Hour 3
  0,                                      !- Minute 3
  1;                                      !- Value Until Time 3

OS:YearDescription,
  {abe45082-2a08-4e70-af86-f7d44811a2f2}, !- Handle
  ,                                       !- Calendar Year
  Sunday;                                 !- Day of Week for Start Day

OS:Schedule:Rule,
  {03095bf1-c94c-4e03-9fb0-8f781b6d0d4d}, !- Handle
  Schedule Rule 2,                        !- Name
  {00e72740-42a4-4573-bc81-37402a0d3741}, !- Schedule Ruleset Name
  1,                                      !- Rule Order
  {c8b9299f-c2fc-47bc-a222-d1d708f434ed}, !- Day Schedule Name
  No,                                     !- Apply Sunday
  No,                                     !- Apply Monday
  No,                                     !- Apply Tuesday
  No,                                     !- Apply Wednesday
  No,                                     !- Apply Thursday
  No,                                     !- Apply Friday
  Yes,                                    !- Apply Saturday
  DateRange,                              !- Date Specification Type
  1,                                      !- Start Month
  1,                                      !- Start Day
  12,                                     !- End Month
  31;                                     !- End Day

OS:Schedule:Day,
  {c8b9299f-c2fc-47bc-a222-d1d708f434ed}, !- Handle
  Schedule Day 3,                         !- Name
  {dc3b7dc4-6717-4189-969d-4d6553bc8a83}, !- Schedule Type Limits Name
  ,                                       !- Interpolate to Timestep
  6,                                      !- Hour 1
  0,                                      !- Minute 1
  1,                                      !- Value Until Time 1
  18,                                     !- Hour 2
  0,                                      !- Minute 2
  0.25,                                   !- Value Until Time 2
  24,                                     !- Hour 3
  0,                                      !- Minute 3
  1;                                      !- Value Until Time 3

OS:Schedule:Ruleset,
  {3c28394b-231a-435e-a011-3cca704f2d96}, !- Handle
  Generic Office Heating,                 !- Name
  {478e6ad0-255d-4c9e-8d7d-a15e7da539c8}, !- Schedule Type Limits Name
  {71ee8cdc-19d1-4ed4-b06e-09ed014e0277}, !- Default Day Schedule Name
  {f308c895-22b3-4df4-b705-0bbf1b168d8d}, !- Summer Design Day Schedule Name
  {fc1cd7c5-7601-45b9-92c0-17ef8747f542}, !- Winter Design Day Schedule Name
  {62c787a2-cc55-42f4-aa68-9edd756524e3}; !- Holiday Schedule Name

OS:Schedule:Day,
  {71ee8cdc-19d1-4ed4-b06e-09ed014e0277}, !- Handle
  Schedule Day 4,                         !- Name
  {478e6ad0-255d-4c9e-8d7d-a15e7da539c8}, !- Schedule Type Limits Name
  ,                                       !- Interpolate to Timestep
  24,                                     !- Hour 1
  0,                                      !- Minute 1
  15.6;                                   !- Value Until Time 1

OS:Schedule:Day,
  {a15ddf0d-4ce0-4841-81ba-3786e8db92b1}, !- Handle
  OfficeMedium HTGSETP_SCH_YES_OPTIMUM_Default, !- Name
  {478e6ad0-255d-4c9e-8d7d-a15e7da539c8}, !- Schedule Type Limits Name
  ,                                       !- Interpolate to Timestep
  24,                                     !- Hour 1
  0,                                      !- Minute 1
  15.6;                                   !- Value Until Time 1

OS:Schedule:Day,
  {d04a16a4-72de-42b7-835e-efe7d617b181}, !- Handle
  OfficeMedium HTGSETP_SCH_YES_OPTIMUM_Default_SmrDsn, !- Name
  {478e6ad0-255d-4c9e-8d7d-a15e7da539c8}, !- Schedule Type Limits Name
  ,                                       !- Interpolate to Timestep
  24,                                     !- Hour 1
  0,                                      !- Minute 1
  15.6;                                   !- Value Until Time 1

OS:Schedule:Day,
  {7e08fe92-1c41-4476-954b-48e9a72af83c}, !- Handle
  OfficeMedium HTGSETP_SCH_YES_OPTIMUM_WntrDsn, !- Name
  {478e6ad0-255d-4c9e-8d7d-a15e7da539c8}, !- Schedule Type Limits Name
  ,                                       !- Interpolate to Timestep
  5,                                      !- Hour 1
  0,                                      !- Minute 1
  15.6,                                   !- Value Until Time 1
  6,                                      !- Hour 2
  0,                                      !- Minute 2
  17.6,                                   !- Value Until Time 2
  7,                                      !- Hour 3
  0,                                      !- Minute 3
  19.6,                                   !- Value Until Time 3
  22,                                     !- Hour 4
  0,                                      !- Minute 4
  21,                                     !- Value Until Time 4
  24,                                     !- Hour 5
  0,                                      !- Minute 5
  15.6;                                   !- Value Until Time 5

OS:Schedule:Day,
  {026d30e9-42b1-4f78-9dc5-427ffd3e5087}, !- Handle
  OfficeMedium HTGSETP_SCH_YES_OPTIMUM_Wkdy, !- Name
  {478e6ad0-255d-4c9e-8d7d-a15e7da539c8}, !- Schedule Type Limits Name
  ,                                       !- Interpolate to Timestep
  5,                                      !- Hour 1
  0,                                      !- Minute 1
  15.6,                                   !- Value Until Time 1
  6,                                      !- Hour 2
  0,                                      !- Minute 2
  17.8,                                   !- Value Until Time 2
  7,                                      !- Hour 3
  0,                                      !- Minute 3
  20,                                     !- Value Until Time 3
  22,                                     !- Hour 4
  0,                                      !- Minute 4
  21,                                     !- Value Until Time 4
  24,                                     !- Hour 5
  0,                                      !- Minute 5
  15.6;                                   !- Value Until Time 5

OS:Schedule:Day,
  {1dd31450-edc7-4c7c-af68-5db382f30310}, !- Handle
  OfficeMedium HTGSETP_SCH_YES_OPTIMUM_Sat, !- Name
  {478e6ad0-255d-4c9e-8d7d-a15e7da539c8}, !- Schedule Type Limits Name
  ,                                       !- Interpolate to Timestep
  5,                                      !- Hour 1
  0,                                      !- Minute 1
  15.6,                                   !- Value Until Time 1
  6,                                      !- Hour 2
  0,                                      !- Minute 2
  17.8,                                   !- Value Until Time 2
  7,                                      !- Hour 3
  0,                                      !- Minute 3
  20,                                     !- Value Until Time 3
  17,                                     !- Hour 4
  0,                                      !- Minute 4
  21,                                     !- Value Until Time 4
  24,                                     !- Hour 5
  0,                                      !- Minute 5
  15.6;                                   !- Value Until Time 5

OS:Schedule:Day,
  {62c787a2-cc55-42f4-aa68-9edd756524e3}, !- Handle
  OfficeMedium HTGSETP_SCH_YES_OPTIMUM_Default 1, !- Name
  {478e6ad0-255d-4c9e-8d7d-a15e7da539c8}, !- Schedule Type Limits Name
  ,                                       !- Interpolate to Timestep
  24,                                     !- Hour 1
  0,                                      !- Minute 1
  15.6;                                   !- Value Until Time 1

OS:Schedule:Day,
  {f308c895-22b3-4df4-b705-0bbf1b168d8d}, !- Handle
  OfficeMedium HTGSETP_SCH_YES_OPTIMUM_Default_SmrDsn 1, !- Name
  {478e6ad0-255d-4c9e-8d7d-a15e7da539c8}, !- Schedule Type Limits Name
  ,                                       !- Interpolate to Timestep
  24,                                     !- Hour 1
  0,                                      !- Minute 1
  15.6;                                   !- Value Until Time 1

OS:Schedule:Day,
  {fc1cd7c5-7601-45b9-92c0-17ef8747f542}, !- Handle
  OfficeMedium HTGSETP_SCH_YES_OPTIMUM_WntrDsn 1, !- Name
  {478e6ad0-255d-4c9e-8d7d-a15e7da539c8}, !- Schedule Type Limits Name
  ,                                       !- Interpolate to Timestep
  5,                                      !- Hour 1
  0,                                      !- Minute 1
  15.6,                                   !- Value Until Time 1
  6,                                      !- Hour 2
  0,                                      !- Minute 2
  17.6,                                   !- Value Until Time 2
  7,                                      !- Hour 3
  0,                                      !- Minute 3
  19.6,                                   !- Value Until Time 3
  22,                                     !- Hour 4
  0,                                      !- Minute 4
  21,                                     !- Value Until Time 4
  24,                                     !- Hour 5
  0,                                      !- Minute 5
  15.6;                                   !- Value Until Time 5

OS:Schedule:Rule,
  {62e42aaf-1ca1-43a5-afeb-c1dc7146fc2d}, !- Handle
  Schedule Rule 3,                        !- Name
  {3c28394b-231a-435e-a011-3cca704f2d96}, !- Schedule Ruleset Name
  0,                                      !- Rule Order
  {70f6039e-1225-4d71-9e78-8135dda790e9}, !- Day Schedule Name
  No,                                     !- Apply Sunday
  Yes,                                    !- Apply Monday
  Yes,                                    !- Apply Tuesday
  Yes,                                    !- Apply Wednesday
  Yes,                                    !- Apply Thursday
  Yes,                                    !- Apply Friday
  No,                                     !- Apply Saturday
  DateRange,                              !- Date Specification Type
  1,                                      !- Start Month
  1,                                      !- Start Day
  12,                                     !- End Month
  31;                                     !- End Day

OS:Schedule:Day,
  {70f6039e-1225-4d71-9e78-8135dda790e9}, !- Handle
  Schedule Day 5,                         !- Name
  {478e6ad0-255d-4c9e-8d7d-a15e7da539c8}, !- Schedule Type Limits Name
  ,                                       !- Interpolate to Timestep
  5,                                      !- Hour 1
  0,                                      !- Minute 1
  15.6,                                   !- Value Until Time 1
  6,                                      !- Hour 2
  0,                                      !- Minute 2
  17.8,                                   !- Value Until Time 2
  7,                                      !- Hour 3
  0,                                      !- Minute 3
  20,                                     !- Value Until Time 3
  22,                                     !- Hour 4
  0,                                      !- Minute 4
  21,                                     !- Value Until Time 4
  24,                                     !- Hour 5
  0,                                      !- Minute 5
  15.6;                                   !- Value Until Time 5

OS:Schedule:Rule,
  {94efac45-2131-44f1-a859-e64091ce57bd}, !- Handle
  Schedule Rule 4,                        !- Name
  {3c28394b-231a-435e-a011-3cca704f2d96}, !- Schedule Ruleset Name
  1,                                      !- Rule Order
  {a231bc1c-736a-4c77-a92e-412d6d496010}, !- Day Schedule Name
  No,                                     !- Apply Sunday
  No,                                     !- Apply Monday
  No,                                     !- Apply Tuesday
  No,                                     !- Apply Wednesday
  No,                                     !- Apply Thursday
  No,                                     !- Apply Friday
  Yes,                                    !- Apply Saturday
  DateRange,                              !- Date Specification Type
  1,                                      !- Start Month
  1,                                      !- Start Day
  12,                                     !- End Month
  31;                                     !- End Day

OS:Schedule:Day,
  {a231bc1c-736a-4c77-a92e-412d6d496010}, !- Handle
  Schedule Day 6,                         !- Name
  {478e6ad0-255d-4c9e-8d7d-a15e7da539c8}, !- Schedule Type Limits Name
  ,                                       !- Interpolate to Timestep
  5,                                      !- Hour 1
  0,                                      !- Minute 1
  15.6,                                   !- Value Until Time 1
  6,                                      !- Hour 2
  0,                                      !- Minute 2
  17.8,                                   !- Value Until Time 2
  7,                                      !- Hour 3
  0,                                      !- Minute 3
  20,                                     !- Value Until Time 3
  17,                                     !- Hour 4
  0,                                      !- Minute 4
  21,                                     !- Value Until Time 4
  24,                                     !- Hour 5
  0,                                      !- Minute 5
  15.6;                                   !- Value Until Time 5

OS:Schedule:Ruleset,
  {c1694015-6987-460d-aac2-fb14fe78a3b5}, !- Handle
  Generic Office Equipment,               !- Name
  {dc3b7dc4-6717-4189-969d-4d6553bc8a83}, !- Schedule Type Limits Name
  {647ef919-31b9-4457-95c7-012f0f7fa0b7}, !- Default Day Schedule Name
  {2a20dcae-e1ee-42f9-b67c-860b58ffa7df}, !- Summer Design Day Schedule Name
  {d8f748a9-44cf-4255-87bf-4426ce2d2ebf}, !- Winter Design Day Schedule Name
  {34dc52b8-a473-4140-9a86-f50b2cc47f82}; !- Holiday Schedule Name

OS:Schedule:Day,
  {647ef919-31b9-4457-95c7-012f0f7fa0b7}, !- Handle
  Schedule Day 7,                         !- Name
  {dc3b7dc4-6717-4189-969d-4d6553bc8a83}, !- Schedule Type Limits Name
  ,                                       !- Interpolate to Timestep