
OS:Version,
  {94a0590b-0c61-45e9-817e-18cea24af1c6}, !- Handle
  3.0.1;                                  !- Version Identifier

OS:Building,
  {e0948fca-2e91-4e75-8d8b-32fb8b3d91f8}, !- Handle
  Building 1,                             !- Name
  ,                                       !- Building Sector Type
  -0,                                     !- North Axis {deg}
  ,                                       !- Nominal Floor to Floor Height {m}
  ,                                       !- Space Type Name
  {f5d93959-19d8-4f9e-8e23-8062d101c8a0}, !- Default Construction Set Name
  ,                                       !- Default Schedule Set Name
  ,                                       !- Standards Number of Stories
  ,                                       !- Standards Number of Above Ground Stories
  ,                                       !- Standards Template
  MediumOffice;                           !- Standards Building Type

OS:Facility,
  {c642d0cc-68a0-42c2-bacf-05f56da4ac52}; !- Handle

OS:Site,
  {39956a8d-ecd3-44fb-b8a4-52caf3636307}, !- Handle
  Site 1,                                 !- Name
  ,                                       !- Latitude {deg}
  ,                                       !- Longitude {deg}
  ,                                       !- Time Zone {hr}
  ,                                       !- Elevation {m}
  City;                                   !- Terrain

OS:SimulationControl,
  {a8bdbf23-3db3-40ea-9605-a4f858ead1d8}, !- Handle
  Yes,                                    !- Do Zone Sizing Calculation
  Yes,                                    !- Do System Sizing Calculation
  Yes,                                    !- Do Plant Sizing Calculation
  No,                                     !- Run Simulation for Sizing Periods
  Yes,                                    !- Run Simulation for Weather File Run Periods
  ,                                       !- Loads Convergence Tolerance Value {W}
  ,                                       !- Temperature Convergence Tolerance Value {deltaC}
  FullExteriorWithReflections;            !- Solar Distribution

OS:Sizing:Parameters,
  {e5712666-24b8-4e2e-b904-9588a6cbf2e1}, !- Handle
  1.25,                                   !- Heating Sizing Factor
  1.15;                                   !- Cooling Sizing Factor

OS:Timestep,
  {d969afc9-bf4f-43ce-ad52-8794ea58f4f8}, !- Handle
  6;                                      !- Number of Timesteps per Hour

OS:ShadowCalculation,
  {7a6dc162-418a-45c8-a101-9572c5732b61}, !- Handle
  PolygonClipping,                        !- Shading Calculation Method
  Periodic,                               !- Shading Calculation Update Frequency Method
  30,                                     !- Shading Calculation Update Frequency
  15000,                                  !- Maximum Figures in Shadow Overlap Calculations
  ,                                       !- Polygon Clipping Algorithm
  512,                                    !- Pixel Counting Resolution
  ,                                       !- Sky Diffuse Modeling Algorithm
  No,                                     !- Output External Shading Calculation Results
  No,                                     !- Disable Self-Shading Within Shading Zone Groups
  No;                                     !- Disable Self-Shading From Shading Zone Groups to Other Zones

OS:HeatBalanceAlgorithm,
  {fd77831a-8240-4272-af70-82603dbc9872}, !- Handle
  ConductionTransferFunction,             !- Algorithm
  200;                                    !- Surface Temperature Upper Limit {C}

OS:RunPeriod,
  {ee489676-c38f-4a7f-9c87-515a2f57c861}, !- Handle
  Run Period 1,                           !- Name
  1,                                      !- Begin Month
  1,                                      !- Begin Day of Month
  1,                                      !- End Month
  31,                                     !- End Day of Month
  ,                                       !- Use Weather File Holidays and Special Days
  ,                                       !- Use Weather File Daylight Saving Period
  ,                                       !- Apply Weekend Holiday Rule
  ,                                       !- Use Weather File Rain Indicators
  ,                                       !- Use Weather File Snow Indicators
  ;                                       !- Number of Times Runperiod to be Repeated

OS:LifeCycleCost:Parameters,
  {c07f8cf4-d637-4ae0-bfd2-2d831e9e2766}, !- Handle
  ,                                       !- Analysis Type
  ,                                       !- Discounting Convention
  ,                                       !- Inflation Approach
  ,                                       !- Real Discount Rate
  ,                                       !- Nominal Discount Rate
  ,                                       !- Inflation
  ,                                       !- Base Date Month
  ,                                       !- Base Date Year
  ,                                       !- Service Date Month
  ,                                       !- Service Date Year
  ;                                       !- Length of Study Period in Years

OS:WeatherFile,
  {1558dcb6-f5f8-4d04-b9fc-e3b2f38ae605}, !- Handle
  Boston Logan IntL Arpt,                 !- City
  MA,                                     !- State Province Region
  USA,                                    !- Country
  TMY3,                                   !- Data Source
  725090,                                 !- WMO Number
  42.37,                                  !- Latitude {deg}
  -71.02,                                 !- Longitude {deg}
  -5,                                     !- Time Zone {hr}
  6,                                      !- Elevation {m}
  C:/Users/Administrator/ladybug_tools/resources/weather/USA_MA_Boston-Logan.Intl.AP.725090_TMY3/USA_MA_Boston-Logan.Intl.AP.725090_TMY3.epw, !- Url
  B65824C3;                               !- Checksum

OS:ScheduleTypeLimits,
  {6e6187f9-6014-49ca-88c1-eb5f95a04d13}, !- Handle
  Temperature,                            !- Name
  -273.15,                                !- Lower Limit Value
  ,                                       !- Upper Limit Value
  Continuous,                             !- Numeric Type
  Temperature;                            !- Unit Type

OS:ScheduleTypeLimits,
  {41629d17-c7f0-47df-a7cd-1b1c9ec5ddfd}, !- Handle
  Activity Level,                         !- Name
  0,                                      !- Lower Limit Value
  ,                                       !- Upper Limit Value
  Continuous,                             !- Numeric Type
  ActivityLevel;                          !- Unit Type

OS:ScheduleTypeLimits,
  {4c86f328-1de8-44cd-b821-919072d47370}, !- Handle
  Fractional,                             !- Name
  0,                                      !- Lower Limit Value
  1,                                      !- Upper Limit Value
  Continuous,                             !- Numeric Type
  Dimensionless;                          !- Unit Type

OS:Schedule:Ruleset,
  {69cc8f8f-ad99-4d6c-ad4c-c5155d082285}, !- Handle
  Generic Office Infiltration,            !- Name
  {4c86f328-1de8-44cd-b821-919072d47370}, !- Schedule Type Limits Name
  {63fa7ab0-8c05-4800-9025-2eec3186fde9}, !- Default Day Schedule Name
  {0bfe5571-c37a-4a35-a99c-a28b3af6ef43}, !- Summer Design Day Schedule Name
  {5976daae-5d47-4182-95bf-ec9813847215}, !- Winter Design Day Schedule Name
  {9090b7ba-850c-4a69-be69-9b14b6aaf697}; !- Holiday Schedule Name

OS:Schedule:Day,
  {63fa7ab0-8c05-4800-9025-2eec3186fde9}, !- Handle
  Schedule Day 1,                         !- Name
  {4c86f328-1de8-44cd-b821-919072d47370}, !- Schedule Type Limits Name
  ,                                       !- Interpolate to Timestep
  24,                                     !- Hour 1
  0,                                      !- Minute 1
  1;                                      !- Value Until Time 1

OS:Schedule:Day,
  {c919fb59-7960-4489-9f86-0b54404c841c}, !- Handle
  OfficeMedium INFIL_SCH_PNNL_Default,    !- Name
  {4c86f328-1de8-44cd-b821-919072d47370}, !- Schedule Type Limits Name
  ,                                       !- Interpolate to Timestep
  24,                                     !- Hour 1
  0,                                      !- Minute 1
  1;                                      !- Value Until Time 1

OS:Schedule:Day,
  {17edb6af-f037-4caa-a005-50ff4fc93b49}, !- Handle
  OfficeMedium INFIL_SCH_PNNL_Wkdy_SmrDsn, !- Name
  {4c86f328-1de8-44cd-b821-919072d47370}, !- Schedule Type Limits Name
  ,                                       !- Interpolate to Timestep
  6,                                      !- Hour 1
  0,                                      !- Minute 1
  1,                                      !- Value Until Time 1
  22,                                     !- Hour 2
  0,                                      !- Minute 2
  0.25,                                   !- Value Until Time 2
  24,                                     !- Hour 3
  0,                                      !- Minute 3
  1;                                      !- Value Until Time 3

OS:Schedule:Day,
  {e4c4af9e-3a23-4993-9c49-9dfb58270456}, !- Handle
  OfficeMedium INFIL_SCH_PNNL_Sat_WntrDsn, !- Name
  {4c86f328-1de8-44cd-b821-919072d47370}, !- Schedule Type Limits Name
  ,                                       !- Interpolate to Timestep
  6,                                      !- Hour 1
  0,                                      !- Minute 1
  1,                                      !- Value Until Time 1
  18,                                     !- Hour 2
  0,                                      !- Minute 2
  0.25,                                   !- Value Until Time 2
  24,                                     !- Hour 3
  0,                                      !- Minute 3
  1;                                      !- Value Until Time 3

OS:Schedule:Day,
  {58c38ea4-8ed7-4ac7-b59b-60a25289b104}, !- Handle
  OfficeMedium INFIL_SCH_PNNL_Wkdy,       !- Name
  {4c86f328-1de8-44cd-b821-919072d47370}, !- Schedule Type Limits Name
  ,                                       !- Interpolate to Timestep
  6,                                      !- Hour 1
  0,                                      !- Minute 1
  1,                                      !- Value Until Time 1
  22,                                     !- Hour 2
  0,                                      !- Minute 2
  0.25,                                   !- Value Until Time 2
  24,                                     !- Hour 3
  0,                                      !- Minute 3
  1;                                      !- Value Until Time 3

OS:Schedule:Day,
  {b8ce87f7-2b23-4d99-8618-6e2db7662cbe}, !- Handle
  OfficeMedium INFIL_SCH_PNNL_Sat,        !- Name
  {4c86f328-1de8-44cd-b821-919072d47370}, !- Schedule Type Limits Name
  ,                                       !- Interpolate to Timestep
  6,                                      !- Hour 1
  0,                                      !- Minute 1
  1,                                      !- Value Until Time 1
  18,                                     !- Hour 2
  0,                                      !- Minute 2
  0.25,                                   !- Value Until Time 2
  24,                                     !- Hour 3
  0,                                      !- Minute 3
  1;                                      !- Value Until Time 3

OS:Schedule:Day,
  {9090b7ba-850c-4a69-be69-9b14b6aaf697}, !- Handle
  OfficeMedium INFIL_SCH_PNNL_Default 1,  !- Name
  {4c86f328-1de8-44cd-b821-919072d47370}, !- Schedule Type Limits Name
  ,                                       !- Interpolate to Timestep
  24,                                     !- Hour 1
  0,                                      !- Minute 1
  1;                                      !- Value Until Time 1

OS:Schedule:Day,
  {0bfe5571-c37a-4a35-a99c-a28b3af6ef43}, !- Handle
  OfficeMedium INFIL_SCH_PNNL_Wkdy_SmrDsn 1, !- Name
  {4c86f328-1de8-44cd-b821-919072d47370}, !- Schedule Type Limits Name
  ,                                       !- Interpolate to Timestep
  6,                                      !- Hour 1
  0,                                      !- Minute 1
  1,                                      !- Value Until Time 1
  22,                                     !- Hour 2
  0,                                      !- Minute 2
  0.25,                                   !- Value Until Time 2
  24,                                     !- Hour 3
  0,                                      !- Minute 3
  1;                                      !- Value Until Time 3

OS:Schedule:Day,
  {5976daae-5d47-4182-95bf-ec9813847215}, !- Handle
  OfficeMedium INFIL_SCH_PNNL_Sat_WntrDsn 1, !- Name
  {4c86f328-1de8-44cd-b821-919072d47370}, !- Schedule Type Limits Name
  ,                                       !- Interpolate to Timestep
  6,                                      !- Hour 1
  0,                                      !- Minute 1
  1,                                      !- Value Until Time 1
  18,                                     !- Hour 2
  0,                                      !- Minute 2
  0.25,                                   !- Value Until Time 2
  24,                                     !- Hour 3
  0,                                      !- Minute 3
  1;                                      !- Value Until Time 3

OS:Schedule:Rule,
  {7a6bfc32-e6c4-4f4e-9895-5c545d8ee1dc}, !- Handle
  Schedule Rule 1,                        !- Name
  {69cc8f8f-ad99-4d6c-ad4c-c5155d082285}, !- Schedule Ruleset Name
  0,                                      !- Rule Order
  {a915225f-2ceb-4624-a183-c99b5d680e42}, !- Day Schedule Name
  No,                                     !- Apply Sunday
  Yes,                                    !- Apply Monday
  Yes,                                    !- Apply Tuesday
  Yes,                                    !- Apply Wednesday
  Yes,                                    !- Apply Thursday
  Yes,                                    !- Apply Friday
  No,                                     !- Apply Saturday
  DateRange,                              !- Date Specification Type
  1,                                      !- Start Month
  1,                                      !- Start Day
  12,                                     !- End Month
  31;                                     !- End Day

OS:Schedule:Day,
  {a915225f-2ceb-4624-a183-c99b5d680e42}, !- Handle
  Schedule Day 2,                         !- Name
  {4c86f328-1de8-44cd-b821-919072d47370}, !- Schedule Type Limits Name
  ,                                       !- Interpolate to Timestep
  6,                                      !- Hour 1
  0,                                      !- Minute 1
  1,                                      !- Value Until Time 1
  22,                                     !- Hour 2
  0,                                      !- Minute 2
  0.25,                                   !- Value Until Time 2
  24,                                     !- Hour 3
  0,                                      !- Minute 3
  1;                                      !- Value Until Time 3

OS:YearDescription,
  {0317220f-c22d-494c-b578-0d96f786c9f0}, !- Handle
  ,                                       !- Calendar Year
  Sunday;                                 !- Day of Week for Start Day

OS:Schedule:Rule,
  {083d63dc-aee0-460b-923a-815f5ea9cdb3}, !- Handle
  Schedule Rule 2,                        !- Name
  {69cc8f8f-ad99-4d6c-ad4c-c5155d082285}, !- Schedule Ruleset Name
  1,                                      !- Rule Order
  {170984de-570a-429d-bd70-aa7b24c0b16c}, !- Day Schedule Name
  No,                                     !- Apply Sunday
  No,                                     !- Apply Monday
  No,                                     !- Apply Tuesday
  No,                                     !- Apply Wednesday
  No,                                     !- Apply Thursday
  No,                                     !- Apply Friday
  Yes,                                    !- Apply Saturday
  DateRange,                              !- Date Specification Type
  1,                                      !- Start Month
  1,                                      !- Start Day
  12,                                     !- End Month
  31;                                     !- End Day

OS:Schedule:Day,
  {170984de-570a-429d-bd70-aa7b24c0b16c}, !- Handle
  Schedule Day 3,                         !- Name
  {4c86f328-1de8-44cd-b821-919072d47370}, !- Schedule Type Limits Name
  ,                                       !- Interpolate to Timestep
  6,                                      !- Hour 1
  0,                                      !- Minute 1
  1,                                      !- Value Until Time 1
  18,                                     !- Hour 2
  0,                                      !- Minute 2
  0.25,                                   !- Value Until Time 2
  24,                                     !- Hour 3
  0,                                      !- Minute 3
  1;                                      !- Value Until Time 3

OS:Schedule:Ruleset,
  {982ef561-0ea6-4f3c-9aa0-819c59464a5c}, !- Handle
  Generic Office Heating,                 !- Name
  {6e6187f9-6014-49ca-88c1-eb5f95a04d13}, !- Schedule Type Limits Name
  {85f554ce-12b7-4d54-9d94-26e1d19abc74}, !- Default Day Schedule Name
  {5c45bb92-2809-4aaf-8163-246d0f048d19}, !- Summer Design Day Schedule Name
  {9bdbac1a-0935-4222-858b-9dc34e18b362}, !- Winter Design Day Schedule Name
  {994275ef-57c5-4807-90d4-76cb1c53cd3c}; !- Holiday Schedule Name

OS:Schedule:Day,
  {85f554ce-12b7-4d54-9d94-26e1d19abc74}, !- Handle
  Schedule Day 4,                         !- Name
  {6e6187f9-6014-49ca-88c1-eb5f95a04d13}, !- Schedule Type Limits Name
  ,                                       !- Interpolate to Timestep
  24,                                     !- Hour 1
  0,                                      !- Minute 1
  15.6;                                   !- Value Until Time 1

OS:Schedule:Day,
  {d56d3251-f88e-4789-8ac8-04b0f510b1a6}, !- Handle
  OfficeMedium HTGSETP_SCH_YES_OPTIMUM_Default, !- Name
  {6e6187f9-6014-49ca-88c1-eb5f95a04d13}, !- Schedule Type Limits Name
  ,                                       !- Interpolate to Timestep
  24,                                     !- Hour 1
  0,                                      !- Minute 1
  15.6;                                   !- Value Until Time 1

OS:Schedule:Day,
  {2e360ed0-64ca-46a2-8604-d583df92aa98}, !- Handle
  OfficeMedium HTGSETP_SCH_YES_OPTIMUM_Default_SmrDsn, !- Name
  {6e6187f9-6014-49ca-88c1-eb5f95a04d13}, !- Schedule Type Limits Name
  ,                                       !- Interpolate to Timestep
  24,                                     !- Hour 1
  0,                                      !- Minute 1
  15.6;                                   !- Value Until Time 1

OS:Schedule:Day,
  {ffa6de4a-b411-4e0f-91fd-8a5ea77c9f0b}, !- Handle
  OfficeMedium HTGSETP_SCH_YES_OPTIMUM_WntrDsn, !- Name
  {6e6187f9-6014-49ca-88c1-eb5f95a04d13}, !- Schedule Type Limits Name
  ,                                       !- Interpolate to Timestep
  5,                                      !- Hour 1
  0,                                      !- Minute 1
  15.6,                                   !- Value Until Time 1
  6,                                      !- Hour 2
  0,                                      !- Minute 2
  17.6,                                   !- Value Until Time 2
  7,                                      !- Hour 3
  0,                                      !- Minute 3
  19.6,                                   !- Value Until Time 3
  22,                                     !- Hour 4
  0,                                      !- Minute 4
  21,                                     !- Value Until Time 4
  24,                                     !- Hour 5
  0,                                      !- Minute 5
  15.6;                                   !- Value Until Time 5

OS:Schedule:Day,
  {ac043420-0713-44a9-8ec4-a5472fe661ef}, !- Handle
  OfficeMedium HTGSETP_SCH_YES_OPTIMUM_Wkdy, !- Name
  {6e6187f9-6014-49ca-88c1-eb5f95a04d13}, !- Schedule Type Limits Name
  ,                                       !- Interpolate to Timestep
  5,                                      !- Hour 1
  0,                                      !- Minute 1
  15.6,                                   !- Value Until Time 1
  6,                                      !- Hour 2
  0,                                      !- Minute 2
  17.8,                                   !- Value Until Time 2
  7,                                      !- Hour 3
  0,                                      !- Minute 3
  20,                                     !- Value Until Time 3
  22,                                     !- Hour 4
  0,                                      !- Minute 4
  21,                                     !- Value Until Time 4
  24,                                     !- Hour 5
  0,                                      !- Minute 5
  15.6;                                   !- Value Until Time 5

OS:Schedule:Day,
  {69e97fd9-1ab4-4eed-81cc-a5454040bbe5}, !- Handle
  OfficeMedium HTGSETP_SCH_YES_OPTIMUM_Sat, !- Name
  {6e6187f9-6014-49ca-88c1-eb5f95a04d13}, !- Schedule Type Limits Name
  ,                                       !- Interpolate to Timestep
  5,                                      !- Hour 1
  0,                                      !- Minute 1
  15.6,                                   !- Value Until Time 1
  6,                                      !- Hour 2
  0,                                      !- Minute 2
  17.8,                                   !- Value Until Time 2
  7,                                      !- Hour 3
  0,                                      !- Minute 3
  20,                                     !- Value Until Time 3
  17,                                     !- Hour 4
  0,                                      !- Minute 4
  21,                                     !- Value Until Time 4
  24,                                     !- Hour 5
  0,                                      !- Minute 5
  15.6;                                   !- Value Until Time 5

OS:Schedule:Day,
  {994275ef-57c5-4807-90d4-76cb1c53cd3c}, !- Handle
  OfficeMedium HTGSETP_SCH_YES_OPTIMUM_Default 1, !- Name
  {6e6187f9-6014-49ca-88c1-eb5f95a04d13}, !- Schedule Type Limits Name
  ,                                       !- Interpolate to Timestep
  24,                                     !- Hour 1
  0,                                      !- Minute 1
  15.6;                                   !- Value Until Time 1

OS:Schedule:Day,
  {5c45bb92-2809-4aaf-8163-246d0f048d19}, !- Handle
  OfficeMedium HTGSETP_SCH_YES_OPTIMUM_Default_SmrDsn 1, !- Name
  {6e6187f9-6014-49ca-88c1-eb5f95a04d13}, !- Schedule Type Limits Name
  ,                                       !- Interpolate to Timestep
  24,                                     !- Hour 1
  0,                                      !- Minute 1
  15.6;                                   !- Value Until Time 1

OS:Schedule:Day,
  {9bdbac1a-0935-4222-858b-9dc34e18b362}, !- Handle
  OfficeMedium HTGSETP_SCH_YES_OPTIMUM_WntrDsn 1, !- Name
  {6e6187f9-6014-49ca-88c1-eb5f95a04d13}, !- Schedule Type Limits Name
  ,                                       !- Interpolate to Timestep
  5,                                      !- Hour 1
  0,                                      !- Minute 1
  15.6,                                   !- Value Until Time 1
  6,                                      !- Hour 2
  0,                                      !- Minute 2
  17.6,                                   !- Value Until Time 2
  7,                                      !- Hour 3
  0,                                      !- Minute 3
  19.6,                                   !- Value Until Time 3
  22,                                     !- Hour 4
  0,                                      !- Minute 4
  21,                                     !- Value Until Time 4
  24,                                     !- Hour 5
  0,                                      !- Minute 5
  15.6;                                   !- Value Until Time 5

OS:Schedule:Rule,
  {34049d3a-b3df-4664-9fd8-57e4c0c83f60}, !- Handle
  Schedule Rule 3,                        !- Name
  {982ef561-0ea6-4f3c-9aa0-819c59464a5c}, !- Schedule Ruleset Name
  0,                                      !- Rule Order
  {1fb3d985-a1fe-4fd0-a3c4-bc7d12200a9e}, !- Day Schedule Name
  No,                                     !- Apply Sunday
  Yes,                                    !- Apply Monday
  Yes,                                    !- Apply Tuesday
  Yes,                                    !- Apply Wednesday
  Yes,                                    !- Apply Thursday
  Yes,                                    !- Apply Friday
  No,                                     !- Apply Saturday
  DateRange,                              !- Date Specification Type
  1,                                      !- Start Month
  1,                                      !- Start Day
  12,                                     !- End Month
  31;                                     !- End Day

OS:Schedule:Day,
  {1fb3d985-a1fe-4fd0-a3c4-bc7d12200a9e}, !- Handle
  Schedule Day 5,                         !- Name
  {6e6187f9-6014-49ca-88c1-eb5f95a04d13}, !- Schedule Type Limits Name
  ,                                       !- Interpolate to Timestep
  5,                                      !- Hour 1
  0,                                      !- Minute 1
  15.6,                                   !- Value Until Time 1
  6,                                      !- Hour 2
  0,                                      !- Minute 2
  17.8,                                   !- Value Until Time 2
  7,                                      !- Hour 3
  0,                                      !- Minute 3
  20,                                     !- Value Until Time 3
  22,                                     !- Hour 4
  0,                                      !- Minute 4
  21,                                     !- Value Until Time 4
  24,                                     !- Hour 5
  0,                                      !- Minute 5
  15.6;                                   !- Value Until Time 5

OS:Schedule:Rule,
  {e2a5df13-3d4f-4061-99d6-a23921537e7b}, !- Handle
  Schedule Rule 4,                        !- Name
  {982ef561-0ea6-4f3c-9aa0-819c59464a5c}, !- Schedule Ruleset Name
  1,                                      !- Rule Order
  {fa9ebdb0-74f4-485b-9981-af1276c7071d}, !- Day Schedule Name
  No,                                     !- Apply Sunday
  No,                                     !- Apply Monday
  No,                                     !- Apply Tuesday
  No,                                     !- Apply Wednesday
  No,                                     !- Apply Thursday
  No,                                     !- Apply Friday
  Yes,                                    !- Apply Saturday
  DateRange,                              !- Date Specification Type
  1,                                      !- Start Month
  1,                                      !- Start Day
  12,                                     !- End Month
  31;                                     !- End Day

OS:Schedule:Day,
  {fa9ebdb0-74f4-485b-9981-af1276c7071d}, !- Handle
  Schedule Day 6,                         !- Name
  {6e6187f9-6014-49ca-88c1-eb5f95a04d13}, !- Schedule Type Limits Name
  ,                                       !- Interpolate to Timestep
  5,                                      !- Hour 1
  0,                                      !- Minute 1
  15.6,                                   !- Value Until Time 1
  6,                                      !- Hour 2
  0,                                      !- Minute 2
  17.8,                                   !- Value Until Time 2
  7,                                      !- Hour 3
  0,                                      !- Minute 3
  20,                                     !- Value Until Time 3
  17,                                     !- Hour 4
  0,                                      !- Minute 4
  21,                                     !- Value Until Time 4
  24,                                     !- Hour 5
  0,                                      !- Minute 5
  15.6;                                   !- Value Until Time 5

OS:Schedule:Ruleset,
  {22030110-5204-4d87-bc5b-3091ac772bae}, !- Handle
  Generic Office Equipment,               !- Name
  {4c86f328-1de8-44cd-b821-919072d47370}, !- Schedule Type Limits Name
  {92b34fbd-0d85-455d-a6ee-7e7f6f94a233}, !- Default Day Schedule Name
  {0adf8735-99bd-4411-9e19-ebd90941db57}, !- Summer Design Day Schedule Name
  {b2967323-e2c6-4b55-b6cc-1d525f337144}, !- Winter Design Day Schedule Name
  {18fe3c95-f34f-4461-b522-ffa6cb195b1e}; !- Holiday Schedule Name

OS:Schedule:Day,
  {92b34fbd-0d85-455d-a6ee-7e7f6f94a233}, !- Handle
  Schedule Day 7,                         !- Name
  {4c86f328-1de8-44cd-b821-919072d47370}, !- Schedule Type Limits Name
  ,                                       !- Interpolate to Timestep