
OS:Version,
  {633cc90f-a90b-4878-885c-1aed8ed0ccf1}, !- Handle
  3.0.1;                                  !- Version Identifier

OS:Building,
  {be8ea4c5-51af-4e27-96f1-e4cff3fae5a4}, !- Handle
  Building 1,                             !- Name
  ,                                       !- Building Sector Type
  -0,                                     !- North Axis {deg}
  ,                                       !- Nominal Floor to Floor Height {m}
  ,                                       !- Space Type Name
  {bc9baed3-c558-4616-ae34-e66312224c6a}, !- Default Construction Set Name
  ,                                       !- Default Schedule Set Name
  ,                                       !- Standards Number of Stories
  ,                                       !- Standards Number of Above Ground Stories
  ,                                       !- Standards Template
  MediumOffice;                           !- Standards Building Type

OS:Facility,
  {906f1a85-927d-4e29-a804-625250e1f4a7}; !- Handle

OS:Site,
  {a894b966-c230-4336-90a7-e18e4f3e80d9}, !- Handle
  Site 1,                                 !- Name
  ,                                       !- Latitude {deg}
  ,                                       !- Longitude {deg}
  ,                                       !- Time Zone {hr}
  ,                                       !- Elevation {m}
  City;                                   !- Terrain

OS:SimulationControl,
  {84e9ca16-0f6f-4d9e-b682-9aedd542a60d}, !- Handle
  Yes,                                    !- Do Zone Sizing Calculation
  Yes,                                    !- Do System Sizing Calculation
  Yes,                                    !- Do Plant Sizing Calculation
  No,                                     !- Run Simulation for Sizing Periods
  Yes,                                    !- Run Simulation for Weather File Run Periods
  ,                                       !- Loads Convergence Tolerance Value {W}
  ,                                       !- Temperature Convergence Tolerance Value {deltaC}
  FullExteriorWithReflections;            !- Solar Distribution

OS:Sizing:Parameters,
  {56ac045f-14cb-42d0-a6c2-e5b21d1e9bf3}, !- Handle
  1.25,                                   !- Heating Sizing Factor
  1.15;                                   !- Cooling Sizing Factor

OS:Timestep,
  {2fffe71f-0f92-4e8a-928d-734d45586375}, !- Handle
  6;                                      !- Number of Timesteps per Hour

OS:ShadowCalculation,
  {826ad250-b0c8-43bb-abb0-9e12cc0d9ecd}, !- Handle
  PolygonClipping,                        !- Shading Calculation Method
  Periodic,                               !- Shading Calculation Update Frequency Method
  30,                                     !- Shading Calculation Update Frequency
  15000,                                  !- Maximum Figures in Shadow Overlap Calculations
  ,                                       !- Polygon Clipping Algorithm
  512,                                    !- Pixel Counting Resolution
  ,                                       !- Sky Diffuse Modeling Algorithm
  No,                                     !- Output External Shading Calculation Results
  No,                                     !- Disable Self-Shading Within Shading Zone Groups
  No;                                     !- Disable Self-Shading From Shading Zone Groups to Other Zones

OS:HeatBalanceAlgorithm,
  {59653445-6f84-4bf8-8142-c6f042ebc634}, !- Handle
  ConductionTransferFunction,             !- Algorithm
  200;                                    !- Surface Temperature Upper Limit {C}

OS:RunPeriod,
  {7f43e976-3914-4b00-8941-851b41f1465d}, !- Handle
  Run Period 1,                           !- Name
  1,                                      !- Begin Month
  1,                                      !- Begin Day of Month
  1,                                      !- End Month
  31,                                     !- End Day of Month
  ,                                       !- Use Weather File Holidays and Special Days
  ,                                       !- Use Weather File Daylight Saving Period
  ,                                       !- Apply Weekend Holiday Rule
  ,                                       !- Use Weather File Rain Indicators
  ,                                       !- Use Weather File Snow Indicators
  ;                                       !- Number of Times Runperiod to be Repeated

OS:LifeCycleCost:Parameters,
  {46f18acf-8a0c-44ba-ac85-ebc1f94ef206}, !- Handle
  ,                                       !- Analysis Type
  ,                                       !- Discounting Convention
  ,                                       !- Inflation Approach
  ,                                       !- Real Discount Rate
  ,                                       !- Nominal Discount Rate
  ,                                       !- Inflation
  ,                                       !- Base Date Month
  ,                                       !- Base Date Year
  ,                                       !- Service Date Month
  ,                                       !- Service Date Year
  ;                                       !- Length of Study Period in Years

OS:WeatherFile,
  {e85709fc-a5d5-42c0-bab7-91960e7ab6cc}, !- Handle
  Boston Logan IntL Arpt,                 !- City
  MA,                                     !- State Province Region
  USA,                                    !- Country
  TMY3,                                   !- Data Source
  725090,                                 !- WMO Number
  42.37,                                  !- Latitude {deg}
  -71.02,                                 !- Longitude {deg}
  -5,                                     !- Time Zone {hr}
  6,                                      !- Elevation {m}
  C:/Users/Administrator/ladybug_tools/resources/weather/USA_MA_Boston-Logan.Intl.AP.725090_TMY3/USA_MA_Boston-Logan.Intl.AP.725090_TMY3.epw, !- Url
  B65824C3;                               !- Checksum

OS:ScheduleTypeLimits,
  {976f5f83-7504-483b-9aa5-46533c9f973c}, !- Handle
  Temperature,                            !- Name
  -273.15,                                !- Lower Limit Value
  ,                                       !- Upper Limit Value
  Continuous,                             !- Numeric Type
  Temperature;                            !- Unit Type

OS:ScheduleTypeLimits,
  {d89fcf62-8cb9-4a73-9522-561bda0a41e5}, !- Handle
  Activity Level,                         !- Name
  0,                                      !- Lower Limit Value
  ,                                       !- Upper Limit Value
  Continuous,                             !- Numeric Type
  ActivityLevel;                          !- Unit Type

OS:ScheduleTypeLimits,
  {3b01faea-0b56-40d3-b4a5-dd376b8207d6}, !- Handle
  Fractional,                             !- Name
  0,                                      !- Lower Limit Value
  1,                                      !- Upper Limit Value
  Continuous,                             !- Numeric Type
  Dimensionless;                          !- Unit Type

OS:Schedule:Ruleset,
  {73db3b47-d2e1-4561-8c1d-16f8af58ba32}, !- Handle
  Generic Office Infiltration,            !- Name
  {3b01faea-0b56-40d3-b4a5-dd376b8207d6}, !- Schedule Type Limits Name
  {4d20153f-c1e6-4c21-bc41-81d9cb2863c5}, !- Default Day Schedule Name
  {00c349b0-d1bf-4103-9ece-80b898437cdd}, !- Summer Design Day Schedule Name
  {297c904f-5173-420b-b233-de226d200c2d}, !- Winter Design Day Schedule Name
  {96d30d98-c9a0-40f6-b49f-8ae5d9defd1a}; !- Holiday Schedule Name

OS:Schedule:Day,
  {4d20153f-c1e6-4c21-bc41-81d9cb2863c5}, !- Handle
  Schedule Day 1,                         !- Name
  {3b01faea-0b56-40d3-b4a5-dd376b8207d6}, !- Schedule Type Limits Name
  ,                                       !- Interpolate to Timestep
  24,                                     !- Hour 1
  0,                                      !- Minute 1
  1;                                      !- Value Until Time 1

OS:Schedule:Day,
  {dd4a83d6-b549-40e7-bb1a-cea58aa848be}, !- Handle
  OfficeMedium INFIL_SCH_PNNL_Default,    !- Name
  {3b01faea-0b56-40d3-b4a5-dd376b8207d6}, !- Schedule Type Limits Name
  ,                                       !- Interpolate to Timestep
  24,                                     !- Hour 1
  0,                                      !- Minute 1
  1;                                      !- Value Until Time 1

OS:Schedule:Day,
  {6170fdf6-7088-4465-8044-dc8c2967368b}, !- Handle
  OfficeMedium INFIL_SCH_PNNL_Wkdy_SmrDsn, !- Name
  {3b01faea-0b56-40d3-b4a5-dd376b8207d6}, !- Schedule Type Limits Name
  ,                                       !- Interpolate to Timestep
  6,                                      !- Hour 1
  0,                                      !- Minute 1
  1,                                      !- Value Until Time 1
  22,                                     !- Hour 2
  0,                                      !- Minute 2
  0.25,                                   !- Value Until Time 2
  24,                                     !- Hour 3
  0,                                      !- Minute 3
  1;                                      !- Value Until Time 3

OS:Schedule:Day,
  {9d4b1d0a-49b3-4862-8119-299d32853447}, !- Handle
  OfficeMedium INFIL_SCH_PNNL_Sat_WntrDsn, !- Name
  {3b01faea-0b56-40d3-b4a5-dd376b8207d6}, !- Schedule Type Limits Name
  ,                                       !- Interpolate to Timestep
  6,                                      !- Hour 1
  0,                                      !- Minute 1
  1,                                      !- Value Until Time 1
  18,                                     !- Hour 2
  0,                                      !- Minute 2
  0.25,                                   !- Value Until Time 2
  24,                                     !- Hour 3
  0,                                      !- Minute 3
  1;                                      !- Value Until Time 3

OS:Schedule:Day,
  {1855bfa7-4d4a-4f28-8157-71a74b4fe475}, !- Handle
  OfficeMedium INFIL_SCH_PNNL_Wkdy,       !- Name
  {3b01faea-0b56-40d3-b4a5-dd376b8207d6}, !- Schedule Type Limits Name
  ,                                       !- Interpolate to Timestep
  6,                                      !- Hour 1
  0,                                      !- Minute 1
  1,                                      !- Value Until Time 1
  22,                                     !- Hour 2
  0,                                      !- Minute 2
  0.25,                                   !- Value Until Time 2
  24,                                     !- Hour 3
  0,                                      !- Minute 3
  1;                                      !- Value Until Time 3

OS:Schedule:Day,
  {4e394691-de3a-496a-ba1a-8ca7610ac3a2}, !- Handle
  OfficeMedium INFIL_SCH_PNNL_Sat,        !- Name
  {3b01faea-0b56-40d3-b4a5-dd376b8207d6}, !- Schedule Type Limits Name
  ,                                       !- Interpolate to Timestep
  6,                                      !- Hour 1
  0,                                      !- Minute 1
  1,                                      !- Value Until Time 1
  18,                                     !- Hour 2
  0,                                      !- Minute 2
  0.25,                                   !- Value Until Time 2
  24,                                     !- Hour 3
  0,                                      !- Minute 3
  1;                                      !- Value Until Time 3

OS:Schedule:Day,
  {96d30d98-c9a0-40f6-b49f-8ae5d9defd1a}, !- Handle
  OfficeMedium INFIL_SCH_PNNL_Default 1,  !- Name
  {3b01faea-0b56-40d3-b4a5-dd376b8207d6}, !- Schedule Type Limits Name
  ,                                       !- Interpolate to Timestep
  24,                                     !- Hour 1
  0,                                      !- Minute 1
  1;                                      !- Value Until Time 1

OS:Schedule:Day,
  {00c349b0-d1bf-4103-9ece-80b898437cdd}, !- Handle
  OfficeMedium INFIL_SCH_PNNL_Wkdy_SmrDsn 1, !- Name
  {3b01faea-0b56-40d3-b4a5-dd376b8207d6}, !- Schedule Type Limits Name
  ,                                       !- Interpolate to Timestep
  6,                                      !- Hour 1
  0,                                      !- Minute 1
  1,                                      !- Value Until Time 1
  22,                                     !- Hour 2
  0,                                      !- Minute 2
  0.25,                                   !- Value Until Time 2
  24,                                     !- Hour 3
  0,                                      !- Minute 3
  1;                                      !- Value Until Time 3

OS:Schedule:Day,
  {297c904f-5173-420b-b233-de226d200c2d}, !- Handle
  OfficeMedium INFIL_SCH_PNNL_Sat_WntrDsn 1, !- Name
  {3b01faea-0b56-40d3-b4a5-dd376b8207d6}, !- Schedule Type Limits Name
  ,                                       !- Interpolate to Timestep
  6,                                      !- Hour 1
  0,                                      !- Minute 1
  1,                                      !- Value Until Time 1
  18,                                     !- Hour 2
  0,                                      !- Minute 2
  0.25,                                   !- Value Until Time 2
  24,                                     !- Hour 3
  0,                                      !- Minute 3
  1;                                      !- Value Until Time 3

OS:Schedule:Rule,
  {c340b744-0513-482b-b329-ecd5d4e4b856}, !- Handle
  Schedule Rule 1,                        !- Name
  {73db3b47-d2e1-4561-8c1d-16f8af58ba32}, !- Schedule Ruleset Name
  0,                                      !- Rule Order
  {c16df5fb-b86d-45b1-bb50-049030e26536}, !- Day Schedule Name
  No,                                     !- Apply Sunday
  Yes,                                    !- Apply Monday
  Yes,                                    !- Apply Tuesday
  Yes,                                    !- Apply Wednesday
  Yes,                                    !- Apply Thursday
  Yes,                                    !- Apply Friday
  No,                                     !- Apply Saturday
  DateRange,                              !- Date Specification Type
  1,                                      !- Start Month
  1,                                      !- Start Day
  12,                                     !- End Month
  31;                                     !- End Day

OS:Schedule:Day,
  {c16df5fb-b86d-45b1-bb50-049030e26536}, !- Handle
  Schedule Day 2,                         !- Name
  {3b01faea-0b56-40d3-b4a5-dd376b8207d6}, !- Schedule Type Limits Name
  ,                                       !- Interpolate to Timestep
  6,                                      !- Hour 1
  0,                                      !- Minute 1
  1,                                      !- Value Until Time 1
  22,                                     !- Hour 2
  0,                                      !- Minute 2
  0.25,                                   !- Value Until Time 2
  24,                                     !- Hour 3
  0,                                      !- Minute 3
  1;                                      !- Value Until Time 3

OS:YearDescription,
  {e49dfe27-8b20-4120-85b0-4b4997d172de}, !- Handle
  ,                                       !- Calendar Year
  Sunday;                                 !- Day of Week for Start Day

OS:Schedule:Rule,
  {f0f6e8e8-eece-4b50-91d8-ab970670fcc2}, !- Handle
  Schedule Rule 2,                        !- Name
  {73db3b47-d2e1-4561-8c1d-16f8af58ba32}, !- Schedule Ruleset Name
  1,                                      !- Rule Order
  {a3dd1839-bc28-4c71-b7ce-1e6bc827f807}, !- Day Schedule Name
  No,                                     !- Apply Sunday
  No,                                     !- Apply Monday
  No,                                     !- Apply Tuesday
  No,                                     !- Apply Wednesday
  No,                                     !- Apply Thursday
  No,                                     !- Apply Friday
  Yes,                                    !- Apply Saturday
  DateRange,                              !- Date Specification Type
  1,                                      !- Start Month
  1,                                      !- Start Day
  12,                                     !- End Month
  31;                                     !- End Day

OS:Schedule:Day,
  {a3dd1839-bc28-4c71-b7ce-1e6bc827f807}, !- Handle
  Schedule Day 3,                         !- Name
  {3b01faea-0b56-40d3-b4a5-dd376b8207d6}, !- Schedule Type Limits Name
  ,                                       !- Interpolate to Timestep
  6,                                      !- Hour 1
  0,                                      !- Minute 1
  1,                                      !- Value Until Time 1
  18,                                     !- Hour 2
  0,                                      !- Minute 2
  0.25,                                   !- Value Until Time 2
  24,                                     !- Hour 3
  0,                                      !- Minute 3
  1;                                      !- Value Until Time 3

OS:Schedule:Ruleset,
  {5ae80145-5994-4cc0-ad87-b35083ea5de2}, !- Handle
  Generic Office Heating,                 !- Name
  {976f5f83-7504-483b-9aa5-46533c9f973c}, !- Schedule Type Limits Name
  {1fcb191b-42a8-4ecb-a7fa-974e4fcfe47f}, !- Default Day Schedule Name
  {01500d23-7154-4e05-b80c-6eba81d013bd}, !- Summer Design Day Schedule Name
  {1eb36dc4-fd83-45e9-8038-609966bd1a53}, !- Winter Design Day Schedule Name
  {d8266062-e122-446e-a4db-0f4567e27a4f}; !- Holiday Schedule Name

OS:Schedule:Day,
  {1fcb191b-42a8-4ecb-a7fa-974e4fcfe47f}, !- Handle
  Schedule Day 4,                         !- Name
  {976f5f83-7504-483b-9aa5-46533c9f973c}, !- Schedule Type Limits Name
  ,                                       !- Interpolate to Timestep
  24,                                     !- Hour 1
  0,                                      !- Minute 1
  15.6;                                   !- Value Until Time 1

OS:Schedule:Day,
  {dabdde95-07ee-4318-b031-2ce88cdd4295}, !- Handle
  OfficeMedium HTGSETP_SCH_YES_OPTIMUM_Default, !- Name
  {976f5f83-7504-483b-9aa5-46533c9f973c}, !- Schedule Type Limits Name
  ,                                       !- Interpolate to Timestep
  24,                                     !- Hour 1
  0,                                      !- Minute 1
  15.6;                                   !- Value Until Time 1

OS:Schedule:Day,
  {857b620b-8431-4a14-8022-3c0a38ec9fd4}, !- Handle
  OfficeMedium HTGSETP_SCH_YES_OPTIMUM_Default_SmrDsn, !- Name
  {976f5f83-7504-483b-9aa5-46533c9f973c}, !- Schedule Type Limits Name
  ,                                       !- Interpolate to Timestep
  24,                                     !- Hour 1
  0,                                      !- Minute 1
  15.6;                                   !- Value Until Time 1

OS:Schedule:Day,
  {d012f467-a33f-4d46-8253-cd3f2cc4fe47}, !- Handle
  OfficeMedium HTGSETP_SCH_YES_OPTIMUM_WntrDsn, !- Name
  {976f5f83-7504-483b-9aa5-46533c9f973c}, !- Schedule Type Limits Name
  ,                                       !- Interpolate to Timestep
  5,                                      !- Hour 1
  0,                                      !- Minute 1
  15.6,                                   !- Value Until Time 1
  6,                                      !- Hour 2
  0,                                      !- Minute 2
  17.6,                                   !- Value Until Time 2
  7,                                      !- Hour 3
  0,                                      !- Minute 3
  19.6,                                   !- Value Until Time 3
  22,                                     !- Hour 4
  0,                                      !- Minute 4
  21,                                     !- Value Until Time 4
  24,                                     !- Hour 5
  0,                                      !- Minute 5
  15.6;                                   !- Value Until Time 5

OS:Schedule:Day,
  {fd017e5e-d16a-43e6-84ab-527c80591f02}, !- Handle
  OfficeMedium HTGSETP_SCH_YES_OPTIMUM_Wkdy, !- Name
  {976f5f83-7504-483b-9aa5-46533c9f973c}, !- Schedule Type Limits Name
  ,                                       !- Interpolate to Timestep
  5,                                      !- Hour 1
  0,                                      !- Minute 1
  15.6,                                   !- Value Until Time 1
  6,                                      !- Hour 2
  0,                                      !- Minute 2
  17.8,                                   !- Value Until Time 2
  7,                                      !- Hour 3
  0,                                      !- Minute 3
  20,                                     !- Value Until Time 3
  22,                                     !- Hour 4
  0,                                      !- Minute 4
  21,                                     !- Value Until Time 4
  24,                                     !- Hour 5
  0,                                      !- Minute 5
  15.6;                                   !- Value Until Time 5

OS:Schedule:Day,
  {abe440fc-1ffb-411f-ac56-4127afc38a2b}, !- Handle
  OfficeMedium HTGSETP_SCH_YES_OPTIMUM_Sat, !- Name
  {976f5f83-7504-483b-9aa5-46533c9f973c}, !- Schedule Type Limits Name
  ,                                       !- Interpolate to Timestep
  5,                                      !- Hour 1
  0,                                      !- Minute 1
  15.6,                                   !- Value Until Time 1
  6,                                      !- Hour 2
  0,                                      !- Minute 2
  17.8,                                   !- Value Until Time 2
  7,                                      !- Hour 3
  0,                                      !- Minute 3
  20,                                     !- Value Until Time 3
  17,                                     !- Hour 4
  0,                                      !- Minute 4
  21,                                     !- Value Until Time 4
  24,                                     !- Hour 5
  0,                                      !- Minute 5
  15.6;                                   !- Value Until Time 5

OS:Schedule:Day,
  {d8266062-e122-446e-a4db-0f4567e27a4f}, !- Handle
  OfficeMedium HTGSETP_SCH_YES_OPTIMUM_Default 1, !- Name
  {976f5f83-7504-483b-9aa5-46533c9f973c}, !- Schedule Type Limits Name
  ,                                       !- Interpolate to Timestep
  24,                                     !- Hour 1
  0,                                      !- Minute 1
  15.6;                                   !- Value Until Time 1

OS:Schedule:Day,
  {01500d23-7154-4e05-b80c-6eba81d013bd}, !- Handle
  OfficeMedium HTGSETP_SCH_YES_OPTIMUM_Default_SmrDsn 1, !- Name
  {976f5f83-7504-483b-9aa5-46533c9f973c}, !- Schedule Type Limits Name
  ,                                       !- Interpolate to Timestep
  24,                                     !- Hour 1
  0,                                      !- Minute 1
  15.6;                                   !- Value Until Time 1

OS:Schedule:Day,
  {1eb36dc4-fd83-45e9-8038-609966bd1a53}, !- Handle
  OfficeMedium HTGSETP_SCH_YES_OPTIMUM_WntrDsn 1, !- Name
  {976f5f83-7504-483b-9aa5-46533c9f973c}, !- Schedule Type Limits Name
  ,                                       !- Interpolate to Timestep
  5,                                      !- Hour 1
  0,                                      !- Minute 1
  15.6,                                   !- Value Until Time 1
  6,                                      !- Hour 2
  0,                                      !- Minute 2
  17.6,                                   !- Value Until Time 2
  7,                                      !- Hour 3
  0,                                      !- Minute 3
  19.6,                                   !- Value Until Time 3
  22,                                     !- Hour 4
  0,                                      !- Minute 4
  21,                                     !- Value Until Time 4
  24,                                     !- Hour 5
  0,                                      !- Minute 5
  15.6;                                   !- Value Until Time 5

OS:Schedule:Rule,
  {ac43ce7f-943e-4296-9df5-76eda5a2eb89}, !- Handle
  Schedule Rule 3,                        !- Name
  {5ae80145-5994-4cc0-ad87-b35083ea5de2}, !- Schedule Ruleset Name
  0,                                      !- Rule Order
  {9f3efb2e-67b6-463f-a79b-c678ed24114d}, !- Day Schedule Name
  No,                                     !- Apply Sunday
  Yes,                                    !- Apply Monday
  Yes,                                    !- Apply Tuesday
  Yes,                                    !- Apply Wednesday
  Yes,                                    !- Apply Thursday
  Yes,                                    !- Apply Friday
  No,                                     !- Apply Saturday
  DateRange,                              !- Date Specification Type
  1,                                      !- Start Month
  1,                                      !- Start Day
  12,                                     !- End Month
  31;                                     !- End Day

OS:Schedule:Day,
  {9f3efb2e-67b6-463f-a79b-c678ed24114d}, !- Handle
  Schedule Day 5,                         !- Name
  {976f5f83-7504-483b-9aa5-46533c9f973c}, !- Schedule Type Limits Name
  ,                                       !- Interpolate to Timestep
  5,                                      !- Hour 1
  0,                                      !- Minute 1
  15.6,                                   !- Value Until Time 1
  6,                                      !- Hour 2
  0,                                      !- Minute 2
  17.8,                                   !- Value Until Time 2
  7,                                      !- Hour 3
  0,                                      !- Minute 3
  20,                                     !- Value Until Time 3
  22,                                     !- Hour 4
  0,                                      !- Minute 4
  21,                                     !- Value Until Time 4
  24,                                     !- Hour 5
  0,                                      !- Minute 5
  15.6;                                   !- Value Until Time 5

OS:Schedule:Rule,
  {b5f63551-3468-4735-9bd5-bbd33398db28}, !- Handle
  Schedule Rule 4,                        !- Name
  {5ae80145-5994-4cc0-ad87-b35083ea5de2}, !- Schedule Ruleset Name
  1,                                      !- Rule Order
  {6960f5e1-00c7-4029-8dbf-10af825034f5}, !- Day Schedule Name
  No,                                     !- Apply Sunday
  No,                                     !- Apply Monday
  No,                                     !- Apply Tuesday
  No,                                     !- Apply Wednesday
  No,                                     !- Apply Thursday
  No,                                     !- Apply Friday
  Yes,                                    !- Apply Saturday
  DateRange,                              !- Date Specification Type
  1,                                      !- Start Month
  1,                                      !- Start Day
  12,                                     !- End Month
  31;                                     !- End Day

OS:Schedule:Day,
  {6960f5e1-00c7-4029-8dbf-10af825034f5}, !- Handle
  Schedule Day 6,                         !- Name
  {976f5f83-7504-483b-9aa5-46533c9f973c}, !- Schedule Type Limits Name
  ,                                       !- Interpolate to Timestep
  5,                                      !- Hour 1
  0,                                      !- Minute 1
  15.6,                                   !- Value Until Time 1
  6,                                      !- Hour 2
  0,                                      !- Minute 2
  17.8,                                   !- Value Until Time 2
  7,                                      !- Hour 3
  0,                                      !- Minute 3
  20,                                     !- Value Until Time 3
  17,                                     !- Hour 4
  0,                                      !- Minute 4
  21,                                     !- Value Until Time 4
  24,                                     !- Hour 5
  0,                                      !- Minute 5
  15.6;                                   !- Value Until Time 5

OS:Schedule:Ruleset,
  {fcfdbce2-1da9-4a15-b4c3-ea2bb123595b}, !- Handle
  Generic Office Equipment,               !- Name
  {3b01faea-0b56-40d3-b4a5-dd376b8207d6}, !- Schedule Type Limits Name
  {543adb45-cfe9-493b-ae1d-f2712b7ecc97}, !- Default Day Schedule Name
  {7de77562-93f1-4f26-832a-a83660ee01ee}, !- Summer Design Day Schedule Name
  {016bdcac-caa3-49aa-8678-2c4927aa6276}, !- Winter Design Day Schedule Name
  {a99cb3c6-5dd3-4851-99d7-699628b79422}; !- Holiday Schedule Name

OS:Schedule:Day,
  {543adb45-cfe9-493b-ae1d-f2712b7ecc97}, !- Handle
  Schedule Day 7,                         !- Name
  {3b01faea-0b56-40d3-b4a5-dd376b8207d6}, !- Schedule Type Limits Name
  ,                                       !- Interpolate to Timestep