
OS:Version,
  {aa76ef42-d690-41ff-871f-fddab663abfc}, !- Handle
  3.0.1;                                  !- Version Identifier

OS:Building,
  {5904b7f1-3025-4dde-a64e-154e4b864531}, !- Handle
  Building 1,                             !- Name
  ,                                       !- Building Sector Type
  -0,                                     !- North Axis {deg}
  ,                                       !- Nominal Floor to Floor Height {m}
  ,                                       !- Space Type Name
  {ad5b2e25-b673-4d3f-94f8-1e2ef42c06fd}, !- Default Construction Set Name
  ,                                       !- Default Schedule Set Name
  ,                                       !- Standards Number of Stories
  ,                                       !- Standards Number of Above Ground Stories
  ,                                       !- Standards Template
  MediumOffice;                           !- Standards Building Type

OS:Facility,
  {5d24ee80-4b0e-4dfb-821f-65b3d6b822b7}; !- Handle

OS:Site,
  {2109278e-dc47-4e57-89ec-dc65d1936245}, !- Handle
  Site 1,                                 !- Name
  ,                                       !- Latitude {deg}
  ,                                       !- Longitude {deg}
  ,                                       !- Time Zone {hr}
  ,                                       !- Elevation {m}
  City;                                   !- Terrain

OS:SimulationControl,
  {00f8364b-05f7-4527-b40c-d841aa5da96d}, !- Handle
  Yes,                                    !- Do Zone Sizing Calculation
  Yes,                                    !- Do System Sizing Calculation
  Yes,                                    !- Do Plant Sizing Calculation
  No,                                     !- Run Simulation for Sizing Periods
  Yes,                                    !- Run Simulation for Weather File Run Periods
  ,                                       !- Loads Convergence Tolerance Value {W}
  ,                                       !- Temperature Convergence Tolerance Value {deltaC}
  FullExteriorWithReflections;            !- Solar Distribution

OS:Sizing:Parameters,
  {c50a48fd-b4a8-4305-b5b3-2d0c52516fe4}, !- Handle
  1.25,                                   !- Heating Sizing Factor
  1.15;                                   !- Cooling Sizing Factor

OS:Timestep,
  {34f01350-b52b-4abe-aee3-e0b9a687caa1}, !- Handle
  6;                                      !- Number of Timesteps per Hour

OS:ShadowCalculation,
  {20b8e215-fb07-46d0-832e-69ad1bd81592}, !- Handle
  PolygonClipping,                        !- Shading Calculation Method
  Periodic,                               !- Shading Calculation Update Frequency Method
  30,                                     !- Shading Calculation Update Frequency
  15000,                                  !- Maximum Figures in Shadow Overlap Calculations
  ,                                       !- Polygon Clipping Algorithm
  512,                                    !- Pixel Counting Resolution
  ,                                       !- Sky Diffuse Modeling Algorithm
  No,                                     !- Output External Shading Calculation Results
  No,                                     !- Disable Self-Shading Within Shading Zone Groups
  No;                                     !- Disable Self-Shading From Shading Zone Groups to Other Zones

OS:HeatBalanceAlgorithm,
  {f438138e-be2d-44da-b310-e74f1b6b025d}, !- Handle
  ConductionTransferFunction,             !- Algorithm
  200;                                    !- Surface Temperature Upper Limit {C}

OS:RunPeriod,
  {2293eef4-7df0-4a03-aa72-89ed75d95619}, !- Handle
  Run Period 1,                           !- Name
  1,                                      !- Begin Month
  1,                                      !- Begin Day of Month
  1,                                      !- End Month
  31,                                     !- End Day of Month
  ,                                       !- Use Weather File Holidays and Special Days
  ,                                       !- Use Weather File Daylight Saving Period
  ,                                       !- Apply Weekend Holiday Rule
  ,                                       !- Use Weather File Rain Indicators
  ,                                       !- Use Weather File Snow Indicators
  ;                                       !- Number of Times Runperiod to be Repeated

OS:LifeCycleCost:Parameters,
  {4b72d3c6-34b5-4394-805c-f9427d8047bf}, !- Handle
  ,                                       !- Analysis Type
  ,                                       !- Discounting Convention
  ,                                       !- Inflation Approach
  ,                                       !- Real Discount Rate
  ,                                       !- Nominal Discount Rate
  ,                                       !- Inflation
  ,                                       !- Base Date Month
  ,                                       !- Base Date Year
  ,                                       !- Service Date Month
  ,                                       !- Service Date Year
  ;                                       !- Length of Study Period in Years

OS:WeatherFile,
  {60baa282-ed49-411e-b844-5821010ccb89}, !- Handle
  Boston Logan IntL Arpt,                 !- City
  MA,                                     !- State Province Region
  USA,                                    !- Country
  TMY3,                                   !- Data Source
  725090,                                 !- WMO Number
  42.37,                                  !- Latitude {deg}
  -71.02,                                 !- Longitude {deg}
  -5,                                     !- Time Zone {hr}
  6,                                      !- Elevation {m}
  C:/Users/Administrator/ladybug_tools/resources/weather/USA_MA_Boston-Logan.Intl.AP.725090_TMY3/USA_MA_Boston-Logan.Intl.AP.725090_TMY3.epw, !- Url
  B65824C3;                               !- Checksum

OS:ScheduleTypeLimits,
  {ca4cf60d-da2e-4823-9ed2-3958526c29a4}, !- Handle
  Temperature,                            !- Name
  -273.15,                                !- Lower Limit Value
  ,                                       !- Upper Limit Value
  Continuous,                             !- Numeric Type
  Temperature;                            !- Unit Type

OS:ScheduleTypeLimits,
  {9454d841-a55f-4ba0-a8b2-5ccdf80a94c4}, !- Handle
  Activity Level,                         !- Name
  0,                                      !- Lower Limit Value
  ,                                       !- Upper Limit Value
  Continuous,                             !- Numeric Type
  ActivityLevel;                          !- Unit Type

OS:ScheduleTypeLimits,
  {ba118957-2c03-462a-85f3-a42b2f1140b2}, !- Handle
  Fractional,                             !- Name
  0,                                      !- Lower Limit Value
  1,                                      !- Upper Limit Value
  Continuous,                             !- Numeric Type
  Dimensionless;                          !- Unit Type

OS:Schedule:Ruleset,
  {43e6f5bc-ad56-461b-9740-6f7c6bbb57f2}, !- Handle
  Generic Office Infiltration,            !- Name
  {ba118957-2c03-462a-85f3-a42b2f1140b2}, !- Schedule Type Limits Name
  {9c8b22f7-4c6a-4a25-9ff9-a70883ecf907}, !- Default Day Schedule Name
  {83ebbc6b-af29-4ec8-b5ba-44dbf462bfbf}, !- Summer Design Day Schedule Name
  {39fcc898-e163-4c8d-ba55-85d62bf09683}, !- Winter Design Day Schedule Name
  {20196ada-c1f7-4996-8e67-e3dd9be7d9f3}; !- Holiday Schedule Name

OS:Schedule:Day,
  {9c8b22f7-4c6a-4a25-9ff9-a70883ecf907}, !- Handle
  Schedule Day 1,                         !- Name
  {ba118957-2c03-462a-85f3-a42b2f1140b2}, !- Schedule Type Limits Name
  ,                                       !- Interpolate to Timestep
  24,                                     !- Hour 1
  0,                                      !- Minute 1
  1;                                      !- Value Until Time 1

OS:Schedule:Day,
  {559a60c9-ac43-4fc5-a194-08ce85d6048b}, !- Handle
  OfficeMedium INFIL_SCH_PNNL_Default,    !- Name
  {ba118957-2c03-462a-85f3-a42b2f1140b2}, !- Schedule Type Limits Name
  ,                                       !- Interpolate to Timestep
  24,                                     !- Hour 1
  0,                                      !- Minute 1
  1;                                      !- Value Until Time 1

OS:Schedule:Day,
  {1dc0dbf0-8304-40fc-ac47-905813da29e6}, !- Handle
  OfficeMedium INFIL_SCH_PNNL_Wkdy_SmrDsn, !- Name
  {ba118957-2c03-462a-85f3-a42b2f1140b2}, !- Schedule Type Limits Name
  ,                                       !- Interpolate to Timestep
  6,                                      !- Hour 1
  0,                                      !- Minute 1
  1,                                      !- Value Until Time 1
  22,                                     !- Hour 2
  0,                                      !- Minute 2
  0.25,                                   !- Value Until Time 2
  24,                                     !- Hour 3
  0,                                      !- Minute 3
  1;                                      !- Value Until Time 3

OS:Schedule:Day,
  {d65eca21-6b56-4e89-ab07-d92b912cd58c}, !- Handle
  OfficeMedium INFIL_SCH_PNNL_Sat_WntrDsn, !- Name
  {ba118957-2c03-462a-85f3-a42b2f1140b2}, !- Schedule Type Limits Name
  ,                                       !- Interpolate to Timestep
  6,                                      !- Hour 1
  0,                                      !- Minute 1
  1,                                      !- Value Until Time 1
  18,                                     !- Hour 2
  0,                                      !- Minute 2
  0.25,                                   !- Value Until Time 2
  24,                                     !- Hour 3
  0,                                      !- Minute 3
  1;                                      !- Value Until Time 3

OS:Schedule:Day,
  {301ca009-1e58-4720-95e8-8fbd5a6db47d}, !- Handle
  OfficeMedium INFIL_SCH_PNNL_Wkdy,       !- Name
  {ba118957-2c03-462a-85f3-a42b2f1140b2}, !- Schedule Type Limits Name
  ,                                       !- Interpolate to Timestep
  6,                                      !- Hour 1
  0,                                      !- Minute 1
  1,                                      !- Value Until Time 1
  22,                                     !- Hour 2
  0,                                      !- Minute 2
  0.25,                                   !- Value Until Time 2
  24,                                     !- Hour 3
  0,                                      !- Minute 3
  1;                                      !- Value Until Time 3

OS:Schedule:Day,
  {b28b9103-33d4-4bf1-914b-c50692f4dcc3}, !- Handle
  OfficeMedium INFIL_SCH_PNNL_Sat,        !- Name
  {ba118957-2c03-462a-85f3-a42b2f1140b2}, !- Schedule Type Limits Name
  ,                                       !- Interpolate to Timestep
  6,                                      !- Hour 1
  0,                                      !- Minute 1
  1,                                      !- Value Until Time 1
  18,                                     !- Hour 2
  0,                                      !- Minute 2
  0.25,                                   !- Value Until Time 2
  24,                                     !- Hour 3
  0,                                      !- Minute 3
  1;                                      !- Value Until Time 3

OS:Schedule:Day,
  {20196ada-c1f7-4996-8e67-e3dd9be7d9f3}, !- Handle
  OfficeMedium INFIL_SCH_PNNL_Default 1,  !- Name
  {ba118957-2c03-462a-85f3-a42b2f1140b2}, !- Schedule Type Limits Name
  ,                                       !- Interpolate to Timestep
  24,                                     !- Hour 1
  0,                                      !- Minute 1
  1;                                      !- Value Until Time 1

OS:Schedule:Day,
  {83ebbc6b-af29-4ec8-b5ba-44dbf462bfbf}, !- Handle
  OfficeMedium INFIL_SCH_PNNL_Wkdy_SmrDsn 1, !- Name
  {ba118957-2c03-462a-85f3-a42b2f1140b2}, !- Schedule Type Limits Name
  ,                                       !- Interpolate to Timestep
  6,                                      !- Hour 1
  0,                                      !- Minute 1
  1,                                      !- Value Until Time 1
  22,                                     !- Hour 2
  0,                                      !- Minute 2
  0.25,                                   !- Value Until Time 2
  24,                                     !- Hour 3
  0,                                      !- Minute 3
  1;                                      !- Value Until Time 3

OS:Schedule:Day,
  {39fcc898-e163-4c8d-ba55-85d62bf09683}, !- Handle
  OfficeMedium INFIL_SCH_PNNL_Sat_WntrDsn 1, !- Name
  {ba118957-2c03-462a-85f3-a42b2f1140b2}, !- Schedule Type Limits Name
  ,                                       !- Interpolate to Timestep
  6,                                      !- Hour 1
  0,                                      !- Minute 1
  1,                                      !- Value Until Time 1
  18,                                     !- Hour 2
  0,                                      !- Minute 2
  0.25,                                   !- Value Until Time 2
  24,                                     !- Hour 3
  0,                                      !- Minute 3
  1;                                      !- Value Until Time 3

OS:Schedule:Rule,
  {4e13b519-ff9c-4782-8323-cfa35f906f7d}, !- Handle
  Schedule Rule 1,                        !- Name
  {43e6f5bc-ad56-461b-9740-6f7c6bbb57f2}, !- Schedule Ruleset Name
  0,                                      !- Rule Order
  {26c9559e-032e-437c-8451-f07ea8467614}, !- Day Schedule Name
  No,                                     !- Apply Sunday
  Yes,                                    !- Apply Monday
  Yes,                                    !- Apply Tuesday
  Yes,                                    !- Apply Wednesday
  Yes,                                    !- Apply Thursday
  Yes,                                    !- Apply Friday
  No,                                     !- Apply Saturday
  DateRange,                              !- Date Specification Type
  1,                                      !- Start Month
  1,                                      !- Start Day
  12,                                     !- End Month
  31;                                     !- End Day

OS:Schedule:Day,
  {26c9559e-032e-437c-8451-f07ea8467614}, !- Handle
  Schedule Day 2,                         !- Name
  {ba118957-2c03-462a-85f3-a42b2f1140b2}, !- Schedule Type Limits Name
  ,                                       !- Interpolate to Timestep
  6,                                      !- Hour 1
  0,                                      !- Minute 1
  1,                                      !- Value Until Time 1
  22,                                     !- Hour 2
  0,                                      !- Minute 2
  0.25,                                   !- Value Until Time 2
  24,                                     !- Hour 3
  0,                                      !- Minute 3
  1;                                      !- Value Until Time 3

OS:YearDescription,
  {ade4126c-f1dc-4c97-81c0-9b8f3d9cc4b5}, !- Handle
  ,                                       !- Calendar Year
  Sunday;                                 !- Day of Week for Start Day

OS:Schedule:Rule,
  {fe3666ca-c382-4880-89fe-e2fad8731a96}, !- Handle
  Schedule Rule 2,                        !- Name
  {43e6f5bc-ad56-461b-9740-6f7c6bbb57f2}, !- Schedule Ruleset Name
  1,                                      !- Rule Order
  {77845425-4ce0-416c-be75-5f63933099d5}, !- Day Schedule Name
  No,                                     !- Apply Sunday
  No,                                     !- Apply Monday
  No,                                     !- Apply Tuesday
  No,                                     !- Apply Wednesday
  No,                                     !- Apply Thursday
  No,                                     !- Apply Friday
  Yes,                                    !- Apply Saturday
  DateRange,                              !- Date Specification Type
  1,                                      !- Start Month
  1,                                      !- Start Day
  12,                                     !- End Month
  31;                                     !- End Day

OS:Schedule:Day,
  {77845425-4ce0-416c-be75-5f63933099d5}, !- Handle
  Schedule Day 3,                         !- Name
  {ba118957-2c03-462a-85f3-a42b2f1140b2}, !- Schedule Type Limits Name
  ,                                       !- Interpolate to Timestep
  6,                                      !- Hour 1
  0,                                      !- Minute 1
  1,                                      !- Value Until Time 1
  18,                                     !- Hour 2
  0,                                      !- Minute 2
  0.25,                                   !- Value Until Time 2
  24,                                     !- Hour 3
  0,                                      !- Minute 3
  1;                                      !- Value Until Time 3

OS:Schedule:Ruleset,
  {4a1f02f3-e932-4a4d-baeb-2be1b9b9afd8}, !- Handle
  Generic Office Heating,                 !- Name
  {ca4cf60d-da2e-4823-9ed2-3958526c29a4}, !- Schedule Type Limits Name
  {ec64faaa-92a1-4331-bf15-6763ced5d782}, !- Default Day Schedule Name
  {726a1d5c-7078-4fe8-8285-19ed68bb04e0}, !- Summer Design Day Schedule Name
  {62691e3d-a039-4558-8bb7-2b6c3f01cd6e}, !- Winter Design Day Schedule Name
  {d00ab064-fdd5-4c5e-8daa-ba982580d839}; !- Holiday Schedule Name

OS:Schedule:Day,
  {ec64faaa-92a1-4331-bf15-6763ced5d782}, !- Handle
  Schedule Day 4,                         !- Name
  {ca4cf60d-da2e-4823-9ed2-3958526c29a4}, !- Schedule Type Limits Name
  ,                                       !- Interpolate to Timestep
  24,                                     !- Hour 1
  0,                                      !- Minute 1
  15.6;                                   !- Value Until Time 1

OS:Schedule:Day,
  {625bcf47-d49f-44c0-a61a-e912808f6917}, !- Handle
  OfficeMedium HTGSETP_SCH_YES_OPTIMUM_Default, !- Name
  {ca4cf60d-da2e-4823-9ed2-3958526c29a4}, !- Schedule Type Limits Name
  ,                                       !- Interpolate to Timestep
  24,                                     !- Hour 1
  0,                                      !- Minute 1
  15.6;                                   !- Value Until Time 1

OS:Schedule:Day,
  {ca6a5bd3-bee2-4922-9aed-930fe78c5bb2}, !- Handle
  OfficeMedium HTGSETP_SCH_YES_OPTIMUM_Default_SmrDsn, !- Name
  {ca4cf60d-da2e-4823-9ed2-3958526c29a4}, !- Schedule Type Limits Name
  ,                                       !- Interpolate to Timestep
  24,                                     !- Hour 1
  0,                                      !- Minute 1
  15.6;                                   !- Value Until Time 1

OS:Schedule:Day,
  {53ab4450-512f-401d-a796-386aebe9bcde}, !- Handle
  OfficeMedium HTGSETP_SCH_YES_OPTIMUM_WntrDsn, !- Name
  {ca4cf60d-da2e-4823-9ed2-3958526c29a4}, !- Schedule Type Limits Name
  ,                                       !- Interpolate to Timestep
  5,                                      !- Hour 1
  0,                                      !- Minute 1
  15.6,                                   !- Value Until Time 1
  6,                                      !- Hour 2
  0,                                      !- Minute 2
  17.6,                                   !- Value Until Time 2
  7,                                      !- Hour 3
  0,                                      !- Minute 3
  19.6,                                   !- Value Until Time 3
  22,                                     !- Hour 4
  0,                                      !- Minute 4
  21,                                     !- Value Until Time 4
  24,                                     !- Hour 5
  0,                                      !- Minute 5
  15.6;                                   !- Value Until Time 5

OS:Schedule:Day,
  {05c1dc02-e3f9-4b53-a600-214123ea2e28}, !- Handle
  OfficeMedium HTGSETP_SCH_YES_OPTIMUM_Wkdy, !- Name
  {ca4cf60d-da2e-4823-9ed2-3958526c29a4}, !- Schedule Type Limits Name
  ,                                       !- Interpolate to Timestep
  5,                                      !- Hour 1
  0,                                      !- Minute 1
  15.6,                                   !- Value Until Time 1
  6,                                      !- Hour 2
  0,                                      !- Minute 2
  17.8,                                   !- Value Until Time 2
  7,                                      !- Hour 3
  0,                                      !- Minute 3
  20,                                     !- Value Until Time 3
  22,                                     !- Hour 4
  0,                                      !- Minute 4
  21,                                     !- Value Until Time 4
  24,                                     !- Hour 5
  0,                                      !- Minute 5
  15.6;                                   !- Value Until Time 5

OS:Schedule:Day,
  {b8c9a4d5-40bc-4365-9d70-7cee754987dd}, !- Handle
  OfficeMedium HTGSETP_SCH_YES_OPTIMUM_Sat, !- Name
  {ca4cf60d-da2e-4823-9ed2-3958526c29a4}, !- Schedule Type Limits Name
  ,                                       !- Interpolate to Timestep
  5,                                      !- Hour 1
  0,                                      !- Minute 1
  15.6,                                   !- Value Until Time 1
  6,                                      !- Hour 2
  0,                                      !- Minute 2
  17.8,                                   !- Value Until Time 2
  7,                                      !- Hour 3
  0,                                      !- Minute 3
  20,                                     !- Value Until Time 3
  17,                                     !- Hour 4
  0,                                      !- Minute 4
  21,                                     !- Value Until Time 4
  24,                                     !- Hour 5
  0,                                      !- Minute 5
  15.6;                                   !- Value Until Time 5

OS:Schedule:Day,
  {d00ab064-fdd5-4c5e-8daa-ba982580d839}, !- Handle
  OfficeMedium HTGSETP_SCH_YES_OPTIMUM_Default 1, !- Name
  {ca4cf60d-da2e-4823-9ed2-3958526c29a4}, !- Schedule Type Limits Name
  ,                                       !- Interpolate to Timestep
  24,                                     !- Hour 1
  0,                                      !- Minute 1
  15.6;                                   !- Value Until Time 1

OS:Schedule:Day,
  {726a1d5c-7078-4fe8-8285-19ed68bb04e0}, !- Handle
  OfficeMedium HTGSETP_SCH_YES_OPTIMUM_Default_SmrDsn 1, !- Name
  {ca4cf60d-da2e-4823-9ed2-3958526c29a4}, !- Schedule Type Limits Name
  ,                                       !- Interpolate to Timestep
  24,                                     !- Hour 1
  0,                                      !- Minute 1
  15.6;                                   !- Value Until Time 1

OS:Schedule:Day,
  {62691e3d-a039-4558-8bb7-2b6c3f01cd6e}, !- Handle
  OfficeMedium HTGSETP_SCH_YES_OPTIMUM_WntrDsn 1, !- Name
  {ca4cf60d-da2e-4823-9ed2-3958526c29a4}, !- Schedule Type Limits Name
  ,                                       !- Interpolate to Timestep
  5,                                      !- Hour 1
  0,                                      !- Minute 1
  15.6,                                   !- Value Until Time 1
  6,                                      !- Hour 2
  0,                                      !- Minute 2
  17.6,                                   !- Value Until Time 2
  7,                                      !- Hour 3
  0,                                      !- Minute 3
  19.6,                                   !- Value Until Time 3
  22,                                     !- Hour 4
  0,                                      !- Minute 4
  21,                                     !- Value Until Time 4
  24,                                     !- Hour 5
  0,                                      !- Minute 5
  15.6;                                   !- Value Until Time 5

OS:Schedule:Rule,
  {cff2f292-4e56-416d-86ad-3be25037dda5}, !- Handle
  Schedule Rule 3,                        !- Name
  {4a1f02f3-e932-4a4d-baeb-2be1b9b9afd8}, !- Schedule Ruleset Name
  0,                                      !- Rule Order
  {640e7d9b-1337-434c-abbc-7e6095318ccf}, !- Day Schedule Name
  No,                                     !- Apply Sunday
  Yes,                                    !- Apply Monday
  Yes,                                    !- Apply Tuesday
  Yes,                                    !- Apply Wednesday
  Yes,                                    !- Apply Thursday
  Yes,                                    !- Apply Friday
  No,                                     !- Apply Saturday
  DateRange,                              !- Date Specification Type
  1,                                      !- Start Month
  1,                                      !- Start Day
  12,                                     !- End Month
  31;                                     !- End Day

OS:Schedule:Day,
  {640e7d9b-1337-434c-abbc-7e6095318ccf}, !- Handle
  Schedule Day 5,                         !- Name
  {ca4cf60d-da2e-4823-9ed2-3958526c29a4}, !- Schedule Type Limits Name
  ,                                       !- Interpolate to Timestep
  5,                                      !- Hour 1
  0,                                      !- Minute 1
  15.6,                                   !- Value Until Time 1
  6,                                      !- Hour 2
  0,                                      !- Minute 2
  17.8,                                   !- Value Until Time 2
  7,                                      !- Hour 3
  0,                                      !- Minute 3
  20,                                     !- Value Until Time 3
  22,                                     !- Hour 4
  0,                                      !- Minute 4
  21,                                     !- Value Until Time 4
  24,                                     !- Hour 5
  0,                                      !- Minute 5
  15.6;                                   !- Value Until Time 5

OS:Schedule:Rule,
  {0989f553-54c7-4db7-bc33-fe2950ee5db8}, !- Handle
  Schedule Rule 4,                        !- Name
  {4a1f02f3-e932-4a4d-baeb-2be1b9b9afd8}, !- Schedule Ruleset Name
  1,                                      !- Rule Order
  {ee43d408-7b2d-4ce7-812c-1208953e0959}, !- Day Schedule Name
  No,                                     !- Apply Sunday
  No,                                     !- Apply Monday
  No,                                     !- Apply Tuesday
  No,                                     !- Apply Wednesday
  No,                                     !- Apply Thursday
  No,                                     !- Apply Friday
  Yes,                                    !- Apply Saturday
  DateRange,                              !- Date Specification Type
  1,                                      !- Start Month
  1,                                      !- Start Day
  12,                                     !- End Month
  31;                                     !- End Day

OS:Schedule:Day,
  {ee43d408-7b2d-4ce7-812c-1208953e0959}, !- Handle
  Schedule Day 6,                         !- Name
  {ca4cf60d-da2e-4823-9ed2-3958526c29a4}, !- Schedule Type Limits Name
  ,                                       !- Interpolate to Timestep
  5,                                      !- Hour 1
  0,                                      !- Minute 1
  15.6,                                   !- Value Until Time 1
  6,                                      !- Hour 2
  0,                                      !- Minute 2
  17.8,                                   !- Value Until Time 2
  7,                                      !- Hour 3
  0,                                      !- Minute 3
  20,                                     !- Value Until Time 3
  17,                                     !- Hour 4
  0,                                      !- Minute 4
  21,                                     !- Value Until Time 4
  24,                                     !- Hour 5
  0,                                      !- Minute 5
  15.6;                                   !- Value Until Time 5

OS:Schedule:Ruleset,
  {df89f57e-fa08-4533-9003-6ed24a758cf8}, !- Handle
  Generic Office Equipment,               !- Name
  {ba118957-2c03-462a-85f3-a42b2f1140b2}, !- Schedule Type Limits Name
  {dc0c6d07-05c6-4d20-9be5-6518a54f3193}, !- Default Day Schedule Name
  {54f3518e-9f71-41d5-b0f8-878ee1abbcfa}, !- Summer Design Day Schedule Name
  {8a6a51a7-b0b7-48ae-9635-928659123840}, !- Winter Design Day Schedule Name
  {365652c3-176a-408e-aeb9-9b60aafbd07c}; !- Holiday Schedule Name

OS:Schedule:Day,
  {dc0c6d07-05c6-4d20-9be5-6518a54f3193}, !- Handle
  Schedule Day 7,                         !- Name
  {ba118957-2c03-462a-85f3-a42b2f1140b2}, !- Schedule Type Limits Name
  ,                                       !- Interpolate to Timestep