
OS:Version,
  {7751c55b-e004-4491-8b6c-38e2573dce5a}, !- Handle
  3.0.1;                                  !- Version Identifier

OS:Building,
  {ad56dcdc-0f0f-4315-9d4e-8ec549016a2c}, !- Handle
  Building 1,                             !- Name
  ,                                       !- Building Sector Type
  -0,                                     !- North Axis {deg}
  ,                                       !- Nominal Floor to Floor Height {m}
  ,                                       !- Space Type Name
  {63c90312-3c83-42e3-80ba-4c79a401aff9}, !- Default Construction Set Name
  ,                                       !- Default Schedule Set Name
  ,                                       !- Standards Number of Stories
  ,                                       !- Standards Number of Above Ground Stories
  ,                                       !- Standards Template
  MediumOffice;                           !- Standards Building Type

OS:Facility,
  {bec3d742-dcc3-4d54-8224-fe7a7291380e}; !- Handle

OS:Site,
  {d86120d0-51b8-4809-ba85-c6c385ccb2ce}, !- Handle
  Site 1,                                 !- Name
  ,                                       !- Latitude {deg}
  ,                                       !- Longitude {deg}
  ,                                       !- Time Zone {hr}
  ,                                       !- Elevation {m}
  City;                                   !- Terrain

OS:SimulationControl,
  {b91970a7-d8f4-4968-9791-e7a100a8393b}, !- Handle
  Yes,                                    !- Do Zone Sizing Calculation
  Yes,                                    !- Do System Sizing Calculation
  Yes,                                    !- Do Plant Sizing Calculation
  No,                                     !- Run Simulation for Sizing Periods
  Yes,                                    !- Run Simulation for Weather File Run Periods
  ,                                       !- Loads Convergence Tolerance Value {W}
  ,                                       !- Temperature Convergence Tolerance Value {deltaC}
  FullExteriorWithReflections;            !- Solar Distribution

OS:Sizing:Parameters,
  {d2dbc2c1-d464-4846-a100-42df7e942944}, !- Handle
  1.25,                                   !- Heating Sizing Factor
  1.15;                                   !- Cooling Sizing Factor

OS:Timestep,
  {27c3c703-eacf-4a5f-a390-b862fb23c009}, !- Handle
  6;                                      !- Number of Timesteps per Hour

OS:ShadowCalculation,
  {69d43597-d1c1-485f-a451-867f182ed573}, !- Handle
  PolygonClipping,                        !- Shading Calculation Method
  Periodic,                               !- Shading Calculation Update Frequency Method
  30,                                     !- Shading Calculation Update Frequency
  15000,                                  !- Maximum Figures in Shadow Overlap Calculations
  ,                                       !- Polygon Clipping Algorithm
  512,                                    !- Pixel Counting Resolution
  ,                                       !- Sky Diffuse Modeling Algorithm
  No,                                     !- Output External Shading Calculation Results
  No,                                     !- Disable Self-Shading Within Shading Zone Groups
  No;                                     !- Disable Self-Shading From Shading Zone Groups to Other Zones

OS:HeatBalanceAlgorithm,
  {b4d42e62-ab16-43f4-94fc-836ad1c8fd54}, !- Handle
  ConductionTransferFunction,             !- Algorithm
  200;                                    !- Surface Temperature Upper Limit {C}

OS:RunPeriod,
  {f30f7e6d-0597-4125-80c0-34b9cd04f73e}, !- Handle
  Run Period 1,                           !- Name
  1,                                      !- Begin Month
  1,                                      !- Begin Day of Month
  1,                                      !- End Month
  31,                                     !- End Day of Month
  ,                                       !- Use Weather File Holidays and Special Days
  ,                                       !- Use Weather File Daylight Saving Period
  ,                                       !- Apply Weekend Holiday Rule
  ,                                       !- Use Weather File Rain Indicators
  ,                                       !- Use Weather File Snow Indicators
  ;                                       !- Number of Times Runperiod to be Repeated

OS:LifeCycleCost:Parameters,
  {dd3846b3-a6c8-47ab-8112-10b187c20867}, !- Handle
  ,                                       !- Analysis Type
  ,                                       !- Discounting Convention
  ,                                       !- Inflation Approach
  ,                                       !- Real Discount Rate
  ,                                       !- Nominal Discount Rate
  ,                                       !- Inflation
  ,                                       !- Base Date Month
  ,                                       !- Base Date Year
  ,                                       !- Service Date Month
  ,                                       !- Service Date Year
  ;                                       !- Length of Study Period in Years

OS:WeatherFile,
  {94ef37fc-2c0e-4169-9e38-2e4f7a984c07}, !- Handle
  Boston Logan IntL Arpt,                 !- City
  MA,                                     !- State Province Region
  USA,                                    !- Country
  TMY3,                                   !- Data Source
  725090,                                 !- WMO Number
  42.37,                                  !- Latitude {deg}
  -71.02,                                 !- Longitude {deg}
  -5,                                     !- Time Zone {hr}
  6,                                      !- Elevation {m}
  C:/Users/Administrator/ladybug_tools/resources/weather/USA_MA_Boston-Logan.Intl.AP.725090_TMY3/USA_MA_Boston-Logan.Intl.AP.725090_TMY3.epw, !- Url
  B65824C3;                               !- Checksum

OS:ScheduleTypeLimits,
  {d65bd374-5d46-49e3-9bd6-071d2460532b}, !- Handle
  Temperature,                            !- Name
  -273.15,                                !- Lower Limit Value
  ,                                       !- Upper Limit Value
  Continuous,                             !- Numeric Type
  Temperature;                            !- Unit Type

OS:ScheduleTypeLimits,
  {97fef439-1a06-462b-b15a-0e3ba9debd14}, !- Handle
  Activity Level,                         !- Name
  0,                                      !- Lower Limit Value
  ,                                       !- Upper Limit Value
  Continuous,                             !- Numeric Type
  ActivityLevel;                          !- Unit Type

OS:ScheduleTypeLimits,
  {8e614f94-656c-4708-b2aa-e547e22fe7f5}, !- Handle
  Fractional,                             !- Name
  0,                                      !- Lower Limit Value
  1,                                      !- Upper Limit Value
  Continuous,                             !- Numeric Type
  Dimensionless;                          !- Unit Type

OS:Schedule:Ruleset,
  {9f856d12-b8b9-4641-8f0e-27cffac8c8a7}, !- Handle
  Generic Office Infiltration,            !- Name
  {8e614f94-656c-4708-b2aa-e547e22fe7f5}, !- Schedule Type Limits Name
  {a7e3e0d4-a484-49b4-a671-101a9c06639b}, !- Default Day Schedule Name
  {eefc687b-139b-4f0c-b428-e69c0e10c7aa}, !- Summer Design Day Schedule Name
  {647b55b9-4872-4a32-9fb7-d73726e36bd4}, !- Winter Design Day Schedule Name
  {cd64d2bc-8512-4f83-b2b9-44668ec9be4d}; !- Holiday Schedule Name

OS:Schedule:Day,
  {a7e3e0d4-a484-49b4-a671-101a9c06639b}, !- Handle
  Schedule Day 1,                         !- Name
  {8e614f94-656c-4708-b2aa-e547e22fe7f5}, !- Schedule Type Limits Name
  ,                                       !- Interpolate to Timestep
  24,                                     !- Hour 1
  0,                                      !- Minute 1
  1;                                      !- Value Until Time 1

OS:Schedule:Day,
  {c811e003-5027-4752-91c4-2e24890df286}, !- Handle
  OfficeMedium INFIL_SCH_PNNL_Default,    !- Name
  {8e614f94-656c-4708-b2aa-e547e22fe7f5}, !- Schedule Type Limits Name
  ,                                       !- Interpolate to Timestep
  24,                                     !- Hour 1
  0,                                      !- Minute 1
  1;                                      !- Value Until Time 1

OS:Schedule:Day,
  {1e79ea4b-57fd-4dc1-ad15-1947d1b65714}, !- Handle
  OfficeMedium INFIL_SCH_PNNL_Wkdy_SmrDsn, !- Name
  {8e614f94-656c-4708-b2aa-e547e22fe7f5}, !- Schedule Type Limits Name
  ,                                       !- Interpolate to Timestep
  6,                                      !- Hour 1
  0,                                      !- Minute 1
  1,                                      !- Value Until Time 1
  22,                                     !- Hour 2
  0,                                      !- Minute 2
  0.25,                                   !- Value Until Time 2
  24,                                     !- Hour 3
  0,                                      !- Minute 3
  1;                                      !- Value Until Time 3

OS:Schedule:Day,
  {3ca82158-1e7c-414a-b277-0404877ed4c6}, !- Handle
  OfficeMedium INFIL_SCH_PNNL_Sat_WntrDsn, !- Name
  {8e614f94-656c-4708-b2aa-e547e22fe7f5}, !- Schedule Type Limits Name
  ,                                       !- Interpolate to Timestep
  6,                                      !- Hour 1
  0,                                      !- Minute 1
  1,                                      !- Value Until Time 1
  18,                                     !- Hour 2
  0,                                      !- Minute 2
  0.25,                                   !- Value Until Time 2
  24,                                     !- Hour 3
  0,                                      !- Minute 3
  1;                                      !- Value Until Time 3

OS:Schedule:Day,
  {45483382-8a43-41c2-aec0-5f45b5184687}, !- Handle
  OfficeMedium INFIL_SCH_PNNL_Wkdy,       !- Name
  {8e614f94-656c-4708-b2aa-e547e22fe7f5}, !- Schedule Type Limits Name
  ,                                       !- Interpolate to Timestep
  6,                                      !- Hour 1
  0,                                      !- Minute 1
  1,                                      !- Value Until Time 1
  22,                                     !- Hour 2
  0,                                      !- Minute 2
  0.25,                                   !- Value Until Time 2
  24,                                     !- Hour 3
  0,                                      !- Minute 3
  1;                                      !- Value Until Time 3

OS:Schedule:Day,
  {6be9f026-a631-457f-a743-96f9777e947b}, !- Handle
  OfficeMedium INFIL_SCH_PNNL_Sat,        !- Name
  {8e614f94-656c-4708-b2aa-e547e22fe7f5}, !- Schedule Type Limits Name
  ,                                       !- Interpolate to Timestep
  6,                                      !- Hour 1
  0,                                      !- Minute 1
  1,                                      !- Value Until Time 1
  18,                                     !- Hour 2
  0,                                      !- Minute 2
  0.25,                                   !- Value Until Time 2
  24,                                     !- Hour 3
  0,                                      !- Minute 3
  1;                                      !- Value Until Time 3

OS:Schedule:Day,
  {cd64d2bc-8512-4f83-b2b9-44668ec9be4d}, !- Handle
  OfficeMedium INFIL_SCH_PNNL_Default 1,  !- Name
  {8e614f94-656c-4708-b2aa-e547e22fe7f5}, !- Schedule Type Limits Name
  ,                                       !- Interpolate to Timestep
  24,                                     !- Hour 1
  0,                                      !- Minute 1
  1;                                      !- Value Until Time 1

OS:Schedule:Day,
  {eefc687b-139b-4f0c-b428-e69c0e10c7aa}, !- Handle
  OfficeMedium INFIL_SCH_PNNL_Wkdy_SmrDsn 1, !- Name
  {8e614f94-656c-4708-b2aa-e547e22fe7f5}, !- Schedule Type Limits Name
  ,                                       !- Interpolate to Timestep
  6,                                      !- Hour 1
  0,                                      !- Minute 1
  1,                                      !- Value Until Time 1
  22,                                     !- Hour 2
  0,                                      !- Minute 2
  0.25,                                   !- Value Until Time 2
  24,                                     !- Hour 3
  0,                                      !- Minute 3
  1;                                      !- Value Until Time 3

OS:Schedule:Day,
  {647b55b9-4872-4a32-9fb7-d73726e36bd4}, !- Handle
  OfficeMedium INFIL_SCH_PNNL_Sat_WntrDsn 1, !- Name
  {8e614f94-656c-4708-b2aa-e547e22fe7f5}, !- Schedule Type Limits Name
  ,                                       !- Interpolate to Timestep
  6,                                      !- Hour 1
  0,                                      !- Minute 1
  1,                                      !- Value Until Time 1
  18,                                     !- Hour 2
  0,                                      !- Minute 2
  0.25,                                   !- Value Until Time 2
  24,                                     !- Hour 3
  0,                                      !- Minute 3
  1;                                      !- Value Until Time 3

OS:Schedule:Rule,
  {a1524b4f-df5f-4644-901f-b3c3db50cb04}, !- Handle
  Schedule Rule 1,                        !- Name
  {9f856d12-b8b9-4641-8f0e-27cffac8c8a7}, !- Schedule Ruleset Name
  0,                                      !- Rule Order
  {9a54d9ca-4d11-45da-bd1f-a476c895daa3}, !- Day Schedule Name
  No,                                     !- Apply Sunday
  Yes,                                    !- Apply Monday
  Yes,                                    !- Apply Tuesday
  Yes,                                    !- Apply Wednesday
  Yes,                                    !- Apply Thursday
  Yes,                                    !- Apply Friday
  No,                                     !- Apply Saturday
  DateRange,                              !- Date Specification Type
  1,                                      !- Start Month
  1,                                      !- Start Day
  12,                                     !- End Month
  31;                                     !- End Day

OS:Schedule:Day,
  {9a54d9ca-4d11-45da-bd1f-a476c895daa3}, !- Handle
  Schedule Day 2,                         !- Name
  {8e614f94-656c-4708-b2aa-e547e22fe7f5}, !- Schedule Type Limits Name
  ,                                       !- Interpolate to Timestep
  6,                                      !- Hour 1
  0,                                      !- Minute 1
  1,                                      !- Value Until Time 1
  22,                                     !- Hour 2
  0,                                      !- Minute 2
  0.25,                                   !- Value Until Time 2
  24,                                     !- Hour 3
  0,                                      !- Minute 3
  1;                                      !- Value Until Time 3

OS:YearDescription,
  {45400f8f-3bf3-4c6d-b2df-c3cb4ffc153f}, !- Handle
  ,                                       !- Calendar Year
  Sunday;                                 !- Day of Week for Start Day

OS:Schedule:Rule,
  {0706ed14-9e49-4e31-b629-15ea0ee7a91f}, !- Handle
  Schedule Rule 2,                        !- Name
  {9f856d12-b8b9-4641-8f0e-27cffac8c8a7}, !- Schedule Ruleset Name
  1,                                      !- Rule Order
  {e06cadd6-70e1-4ae9-b92f-db5ac70163e1}, !- Day Schedule Name
  No,                                     !- Apply Sunday
  No,                                     !- Apply Monday
  No,                                     !- Apply Tuesday
  No,                                     !- Apply Wednesday
  No,                                     !- Apply Thursday
  No,                                     !- Apply Friday
  Yes,                                    !- Apply Saturday
  DateRange,                              !- Date Specification Type
  1,                                      !- Start Month
  1,                                      !- Start Day
  12,                                     !- End Month
  31;                                     !- End Day

OS:Schedule:Day,
  {e06cadd6-70e1-4ae9-b92f-db5ac70163e1}, !- Handle
  Schedule Day 3,                         !- Name
  {8e614f94-656c-4708-b2aa-e547e22fe7f5}, !- Schedule Type Limits Name
  ,                                       !- Interpolate to Timestep
  6,                                      !- Hour 1
  0,                                      !- Minute 1
  1,                                      !- Value Until Time 1
  18,                                     !- Hour 2
  0,                                      !- Minute 2
  0.25,                                   !- Value Until Time 2
  24,                                     !- Hour 3
  0,                                      !- Minute 3
  1;                                      !- Value Until Time 3

OS:Schedule:Ruleset,
  {281cec37-bba3-40a6-8365-4a040b822c34}, !- Handle
  Generic Office Heating,                 !- Name
  {d65bd374-5d46-49e3-9bd6-071d2460532b}, !- Schedule Type Limits Name
  {8ef4edcb-4a30-4741-837d-fa3bda3e404c}, !- Default Day Schedule Name
  {f44a5b27-8c10-465b-bc5e-47e2f58169f8}, !- Summer Design Day Schedule Name
  {ef137c77-0867-4d14-ba25-001b89f0a31b}, !- Winter Design Day Schedule Name
  {93c8e8c7-f4d7-46b4-a924-24b13b67bf4a}; !- Holiday Schedule Name

OS:Schedule:Day,
  {8ef4edcb-4a30-4741-837d-fa3bda3e404c}, !- Handle
  Schedule Day 4,                         !- Name
  {d65bd374-5d46-49e3-9bd6-071d2460532b}, !- Schedule Type Limits Name
  ,                                       !- Interpolate to Timestep
  24,                                     !- Hour 1
  0,                                      !- Minute 1
  15.6;                                   !- Value Until Time 1

OS:Schedule:Day,
  {2ecdd693-6e03-4811-9343-ae1bf1935581}, !- Handle
  OfficeMedium HTGSETP_SCH_YES_OPTIMUM_Default, !- Name
  {d65bd374-5d46-49e3-9bd6-071d2460532b}, !- Schedule Type Limits Name
  ,                                       !- Interpolate to Timestep
  24,                                     !- Hour 1
  0,                                      !- Minute 1
  15.6;                                   !- Value Until Time 1

OS:Schedule:Day,
  {7623a6f8-3c56-4440-b870-93166c7b1db1}, !- Handle
  OfficeMedium HTGSETP_SCH_YES_OPTIMUM_Default_SmrDsn, !- Name
  {d65bd374-5d46-49e3-9bd6-071d2460532b}, !- Schedule Type Limits Name
  ,                                       !- Interpolate to Timestep
  24,                                     !- Hour 1
  0,                                      !- Minute 1
  15.6;                                   !- Value Until Time 1

OS:Schedule:Day,
  {b1b246fa-6390-498a-8249-9e39421acd74}, !- Handle
  OfficeMedium HTGSETP_SCH_YES_OPTIMUM_WntrDsn, !- Name
  {d65bd374-5d46-49e3-9bd6-071d2460532b}, !- Schedule Type Limits Name
  ,                                       !- Interpolate to Timestep
  5,                                      !- Hour 1
  0,                                      !- Minute 1
  15.6,                                   !- Value Until Time 1
  6,                                      !- Hour 2
  0,                                      !- Minute 2
  17.6,                                   !- Value Until Time 2
  7,                                      !- Hour 3
  0,                                      !- Minute 3
  19.6,                                   !- Value Until Time 3
  22,                                     !- Hour 4
  0,                                      !- Minute 4
  21,                                     !- Value Until Time 4
  24,                                     !- Hour 5
  0,                                      !- Minute 5
  15.6;                                   !- Value Until Time 5

OS:Schedule:Day,
  {edb6184a-aed2-424e-95ca-f28d7d363c98}, !- Handle
  OfficeMedium HTGSETP_SCH_YES_OPTIMUM_Wkdy, !- Name
  {d65bd374-5d46-49e3-9bd6-071d2460532b}, !- Schedule Type Limits Name
  ,                                       !- Interpolate to Timestep
  5,                                      !- Hour 1
  0,                                      !- Minute 1
  15.6,                                   !- Value Until Time 1
  6,                                      !- Hour 2
  0,                                      !- Minute 2
  17.8,                                   !- Value Until Time 2
  7,                                      !- Hour 3
  0,                                      !- Minute 3
  20,                                     !- Value Until Time 3
  22,                                     !- Hour 4
  0,                                      !- Minute 4
  21,                                     !- Value Until Time 4
  24,                                     !- Hour 5
  0,                                      !- Minute 5
  15.6;                                   !- Value Until Time 5

OS:Schedule:Day,
  {a360d31f-cef3-46a7-85a5-bb4e77a20c95}, !- Handle
  OfficeMedium HTGSETP_SCH_YES_OPTIMUM_Sat, !- Name
  {d65bd374-5d46-49e3-9bd6-071d2460532b}, !- Schedule Type Limits Name
  ,                                       !- Interpolate to Timestep
  5,                                      !- Hour 1
  0,                                      !- Minute 1
  15.6,                                   !- Value Until Time 1
  6,                                      !- Hour 2
  0,                                      !- Minute 2
  17.8,                                   !- Value Until Time 2
  7,                                      !- Hour 3
  0,                                      !- Minute 3
  20,                                     !- Value Until Time 3
  17,                                     !- Hour 4
  0,                                      !- Minute 4
  21,                                     !- Value Until Time 4
  24,                                     !- Hour 5
  0,                                      !- Minute 5
  15.6;                                   !- Value Until Time 5

OS:Schedule:Day,
  {93c8e8c7-f4d7-46b4-a924-24b13b67bf4a}, !- Handle
  OfficeMedium HTGSETP_SCH_YES_OPTIMUM_Default 1, !- Name
  {d65bd374-5d46-49e3-9bd6-071d2460532b}, !- Schedule Type Limits Name
  ,                                       !- Interpolate to Timestep
  24,                                     !- Hour 1
  0,                                      !- Minute 1
  15.6;                                   !- Value Until Time 1

OS:Schedule:Day,
  {f44a5b27-8c10-465b-bc5e-47e2f58169f8}, !- Handle
  OfficeMedium HTGSETP_SCH_YES_OPTIMUM_Default_SmrDsn 1, !- Name
  {d65bd374-5d46-49e3-9bd6-071d2460532b}, !- Schedule Type Limits Name
  ,                                       !- Interpolate to Timestep
  24,                                     !- Hour 1
  0,                                      !- Minute 1
  15.6;                                   !- Value Until Time 1

OS:Schedule:Day,
  {ef137c77-0867-4d14-ba25-001b89f0a31b}, !- Handle
  OfficeMedium HTGSETP_SCH_YES_OPTIMUM_WntrDsn 1, !- Name
  {d65bd374-5d46-49e3-9bd6-071d2460532b}, !- Schedule Type Limits Name
  ,                                       !- Interpolate to Timestep
  5,                                      !- Hour 1
  0,                                      !- Minute 1
  15.6,                                   !- Value Until Time 1
  6,                                      !- Hour 2
  0,                                      !- Minute 2
  17.6,                                   !- Value Until Time 2
  7,                                      !- Hour 3
  0,                                      !- Minute 3
  19.6,                                   !- Value Until Time 3
  22,                                     !- Hour 4
  0,                                      !- Minute 4
  21,                                     !- Value Until Time 4
  24,                                     !- Hour 5
  0,                                      !- Minute 5
  15.6;                                   !- Value Until Time 5

OS:Schedule:Rule,
  {08161f1e-7524-419d-b8b7-3180020833bb}, !- Handle
  Schedule Rule 3,                        !- Name
  {281cec37-bba3-40a6-8365-4a040b822c34}, !- Schedule Ruleset Name
  0,                                      !- Rule Order
  {94d52cfd-e609-4745-a741-9500b6aa5d96}, !- Day Schedule Name
  No,                                     !- Apply Sunday
  Yes,                                    !- Apply Monday
  Yes,                                    !- Apply Tuesday
  Yes,                                    !- Apply Wednesday
  Yes,                                    !- Apply Thursday
  Yes,                                    !- Apply Friday
  No,                                     !- Apply Saturday
  DateRange,                              !- Date Specification Type
  1,                                      !- Start Month
  1,                                      !- Start Day
  12,                                     !- End Month
  31;                                     !- End Day

OS:Schedule:Day,
  {94d52cfd-e609-4745-a741-9500b6aa5d96}, !- Handle
  Schedule Day 5,                         !- Name
  {d65bd374-5d46-49e3-9bd6-071d2460532b}, !- Schedule Type Limits Name
  ,                                       !- Interpolate to Timestep
  5,                                      !- Hour 1
  0,                                      !- Minute 1
  15.6,                                   !- Value Until Time 1
  6,                                      !- Hour 2
  0,                                      !- Minute 2
  17.8,                                   !- Value Until Time 2
  7,                                      !- Hour 3
  0,                                      !- Minute 3
  20,                                     !- Value Until Time 3
  22,                                     !- Hour 4
  0,                                      !- Minute 4
  21,                                     !- Value Until Time 4
  24,                                     !- Hour 5
  0,                                      !- Minute 5
  15.6;                                   !- Value Until Time 5

OS:Schedule:Rule,
  {4965720c-a305-46f3-b0b8-9798b707aad4}, !- Handle
  Schedule Rule 4,                        !- Name
  {281cec37-bba3-40a6-8365-4a040b822c34}, !- Schedule Ruleset Name
  1,                                      !- Rule Order
  {671791f3-000b-4be4-9ad6-e533df31fff2}, !- Day Schedule Name
  No,                                     !- Apply Sunday
  No,                                     !- Apply Monday
  No,                                     !- Apply Tuesday
  No,                                     !- Apply Wednesday
  No,                                     !- Apply Thursday
  No,                                     !- Apply Friday
  Yes,                                    !- Apply Saturday
  DateRange,                              !- Date Specification Type
  1,                                      !- Start Month
  1,                                      !- Start Day
  12,                                     !- End Month
  31;                                     !- End Day

OS:Schedule:Day,
  {671791f3-000b-4be4-9ad6-e533df31fff2}, !- Handle
  Schedule Day 6,                         !- Name
  {d65bd374-5d46-49e3-9bd6-071d2460532b}, !- Schedule Type Limits Name
  ,                                       !- Interpolate to Timestep
  5,                                      !- Hour 1
  0,                                      !- Minute 1
  15.6,                                   !- Value Until Time 1
  6,                                      !- Hour 2
  0,                                      !- Minute 2
  17.8,                                   !- Value Until Time 2
  7,                                      !- Hour 3
  0,                                      !- Minute 3
  20,                                     !- Value Until Time 3
  17,                                     !- Hour 4
  0,                                      !- Minute 4
  21,                                     !- Value Until Time 4
  24,                                     !- Hour 5
  0,                                      !- Minute 5
  15.6;                                   !- Value Until Time 5

OS:Schedule:Ruleset,
  {e5b0b550-2aae-488c-bc0c-ee060896f522}, !- Handle
  Generic Office Equipment,               !- Name
  {8e614f94-656c-4708-b2aa-e547e22fe7f5}, !- Schedule Type Limits Name
  {f3781e4a-b089-436b-9aa5-003eaa652393}, !- Default Day Schedule Name
  {e22ab7ef-ba1d-4d2d-97cd-97807ee99f2b}, !- Summer Design Day Schedule Name
  {18e56f0f-4670-465f-8e2b-4e0ba1090180}, !- Winter Design Day Schedule Name
  {226b5765-3d6f-45c6-aba8-3997c5ac8b8b}; !- Holiday Schedule Name

OS:Schedule:Day,
  {f3781e4a-b089-436b-9aa5-003eaa652393}, !- Handle
  Schedule Day 7,                         !- Name
  {8e614f94-656c-4708-b2aa-e547e22fe7f5}, !- Schedule Type Limits Name
  ,                                       !- Interpolate to Timestep