
OS:Version,
  {559fd8e5-d638-4c90-9fb3-7fc0e96cb6e3}, !- Handle
  3.0.1;                                  !- Version Identifier

OS:Building,
  {95ac112e-2089-406c-939d-da0f7e1f97ba}, !- Handle
  Building 1,                             !- Name
  ,                                       !- Building Sector Type
  -0,                                     !- North Axis {deg}
  ,                                       !- Nominal Floor to Floor Height {m}
  ,                                       !- Space Type Name
  {43d41f6e-7a82-47d9-af30-9ea6bddfe4aa}, !- Default Construction Set Name
  ,                                       !- Default Schedule Set Name
  ,                                       !- Standards Number of Stories
  ,                                       !- Standards Number of Above Ground Stories
  ,                                       !- Standards Template
  MediumOffice;                           !- Standards Building Type

OS:Facility,
  {95fa6e97-2b17-4ad3-9511-b7f966a879f0}; !- Handle

OS:Site,
  {b5aa3534-efa8-40b6-ac0b-901be6f55d25}, !- Handle
  Site 1,                                 !- Name
  ,                                       !- Latitude {deg}
  ,                                       !- Longitude {deg}
  ,                                       !- Time Zone {hr}
  ,                                       !- Elevation {m}
  City;                                   !- Terrain

OS:SimulationControl,
  {ab95ce2a-5c37-4d88-b7a9-6ca7c246ad45}, !- Handle
  Yes,                                    !- Do Zone Sizing Calculation
  Yes,                                    !- Do System Sizing Calculation
  Yes,                                    !- Do Plant Sizing Calculation
  No,                                     !- Run Simulation for Sizing Periods
  Yes,                                    !- Run Simulation for Weather File Run Periods
  ,                                       !- Loads Convergence Tolerance Value {W}
  ,                                       !- Temperature Convergence Tolerance Value {deltaC}
  FullExteriorWithReflections;            !- Solar Distribution

OS:Sizing:Parameters,
  {8efea118-b8d3-4dec-8a0d-562a5166b36d}, !- Handle
  1.25,                                   !- Heating Sizing Factor
  1.15;                                   !- Cooling Sizing Factor

OS:Timestep,
  {40b234bf-2e50-405a-a4d7-517bdfe1c849}, !- Handle
  6;                                      !- Number of Timesteps per Hour

OS:ShadowCalculation,
  {5d9cb204-f3b8-443d-868a-36673667b391}, !- Handle
  PolygonClipping,                        !- Shading Calculation Method
  Periodic,                               !- Shading Calculation Update Frequency Method
  30,                                     !- Shading Calculation Update Frequency
  15000,                                  !- Maximum Figures in Shadow Overlap Calculations
  ,                                       !- Polygon Clipping Algorithm
  512,                                    !- Pixel Counting Resolution
  ,                                       !- Sky Diffuse Modeling Algorithm
  No,                                     !- Output External Shading Calculation Results
  No,                                     !- Disable Self-Shading Within Shading Zone Groups
  No;                                     !- Disable Self-Shading From Shading Zone Groups to Other Zones

OS:HeatBalanceAlgorithm,
  {fc5fd42f-4872-4da9-8ca3-ac86436b358f}, !- Handle
  ConductionTransferFunction,             !- Algorithm
  200;                                    !- Surface Temperature Upper Limit {C}

OS:RunPeriod,
  {7481dbe4-262e-4482-ad48-69ef820dcadc}, !- Handle
  Run Period 1,                           !- Name
  1,                                      !- Begin Month
  1,                                      !- Begin Day of Month
  1,                                      !- End Month
  31,                                     !- End Day of Month
  ,                                       !- Use Weather File Holidays and Special Days
  ,                                       !- Use Weather File Daylight Saving Period
  ,                                       !- Apply Weekend Holiday Rule
  ,                                       !- Use Weather File Rain Indicators
  ,                                       !- Use Weather File Snow Indicators
  ;                                       !- Number of Times Runperiod to be Repeated

OS:LifeCycleCost:Parameters,
  {d7eb6430-e07c-4a65-8a96-fe4391bffd5b}, !- Handle
  ,                                       !- Analysis Type
  ,                                       !- Discounting Convention
  ,                                       !- Inflation Approach
  ,                                       !- Real Discount Rate
  ,                                       !- Nominal Discount Rate
  ,                                       !- Inflation
  ,                                       !- Base Date Month
  ,                                       !- Base Date Year
  ,                                       !- Service Date Month
  ,                                       !- Service Date Year
  ;                                       !- Length of Study Period in Years

OS:WeatherFile,
  {ddf94846-2246-4b7f-970a-8e9765b8a88a}, !- Handle
  Boston Logan IntL Arpt,                 !- City
  MA,                                     !- State Province Region
  USA,                                    !- Country
  TMY3,                                   !- Data Source
  725090,                                 !- WMO Number
  42.37,                                  !- Latitude {deg}
  -71.02,                                 !- Longitude {deg}
  -5,                                     !- Time Zone {hr}
  6,                                      !- Elevation {m}
  C:/Users/Administrator/ladybug_tools/resources/weather/USA_MA_Boston-Logan.Intl.AP.725090_TMY3/USA_MA_Boston-Logan.Intl.AP.725090_TMY3.epw, !- Url
  B65824C3;                               !- Checksum

OS:ScheduleTypeLimits,
  {067bc222-a872-4c50-9d9e-a80e4b51efb3}, !- Handle
  Temperature,                            !- Name
  -273.15,                                !- Lower Limit Value
  ,                                       !- Upper Limit Value
  Continuous,                             !- Numeric Type
  Temperature;                            !- Unit Type

OS:ScheduleTypeLimits,
  {7a4d5869-5443-4bea-ad32-8f03ecb12444}, !- Handle
  Activity Level,                         !- Name
  0,                                      !- Lower Limit Value
  ,                                       !- Upper Limit Value
  Continuous,                             !- Numeric Type
  ActivityLevel;                          !- Unit Type

OS:ScheduleTypeLimits,
  {bbee1023-96ea-470b-b1d0-c016dc323708}, !- Handle
  Fractional,                             !- Name
  0,                                      !- Lower Limit Value
  1,                                      !- Upper Limit Value
  Continuous,                             !- Numeric Type
  Dimensionless;                          !- Unit Type

OS:Schedule:Ruleset,
  {1fc5418e-f81e-49cb-a7b0-e6abb53b5e9a}, !- Handle
  Generic Office Infiltration,            !- Name
  {bbee1023-96ea-470b-b1d0-c016dc323708}, !- Schedule Type Limits Name
  {b394c0db-cab8-4c66-98b4-2580634e1fb9}, !- Default Day Schedule Name
  {9d3a3e6e-eea4-4720-a9c5-3b5e08776d01}, !- Summer Design Day Schedule Name
  {7ca0f108-60cb-463c-9adc-161c3e1f9620}, !- Winter Design Day Schedule Name
  {a58cf16e-af76-4585-a0cb-934c8da244a3}; !- Holiday Schedule Name

OS:Schedule:Day,
  {b394c0db-cab8-4c66-98b4-2580634e1fb9}, !- Handle
  Schedule Day 1,                         !- Name
  {bbee1023-96ea-470b-b1d0-c016dc323708}, !- Schedule Type Limits Name
  ,                                       !- Interpolate to Timestep
  24,                                     !- Hour 1
  0,                                      !- Minute 1
  1;                                      !- Value Until Time 1

OS:Schedule:Day,
  {db2e1c76-6f9f-452e-8694-54902c1628b4}, !- Handle
  OfficeMedium INFIL_SCH_PNNL_Default,    !- Name
  {bbee1023-96ea-470b-b1d0-c016dc323708}, !- Schedule Type Limits Name
  ,                                       !- Interpolate to Timestep
  24,                                     !- Hour 1
  0,                                      !- Minute 1
  1;                                      !- Value Until Time 1

OS:Schedule:Day,
  {480a7a00-5614-408e-a957-183086ef8af4}, !- Handle
  OfficeMedium INFIL_SCH_PNNL_Wkdy_SmrDsn, !- Name
  {bbee1023-96ea-470b-b1d0-c016dc323708}, !- Schedule Type Limits Name
  ,                                       !- Interpolate to Timestep
  6,                                      !- Hour 1
  0,                                      !- Minute 1
  1,                                      !- Value Until Time 1
  22,                                     !- Hour 2
  0,                                      !- Minute 2
  0.25,                                   !- Value Until Time 2
  24,                                     !- Hour 3
  0,                                      !- Minute 3
  1;                                      !- Value Until Time 3

OS:Schedule:Day,
  {b68a320e-fdd9-4c9b-893c-65adcfe49e55}, !- Handle
  OfficeMedium INFIL_SCH_PNNL_Sat_WntrDsn, !- Name
  {bbee1023-96ea-470b-b1d0-c016dc323708}, !- Schedule Type Limits Name
  ,                                       !- Interpolate to Timestep
  6,                                      !- Hour 1
  0,                                      !- Minute 1
  1,                                      !- Value Until Time 1
  18,                                     !- Hour 2
  0,                                      !- Minute 2
  0.25,                                   !- Value Until Time 2
  24,                                     !- Hour 3
  0,                                      !- Minute 3
  1;                                      !- Value Until Time 3

OS:Schedule:Day,
  {cf539ac9-b67e-4ab6-9ca4-2601d2f2a975}, !- Handle
  OfficeMedium INFIL_SCH_PNNL_Wkdy,       !- Name
  {bbee1023-96ea-470b-b1d0-c016dc323708}, !- Schedule Type Limits Name
  ,                                       !- Interpolate to Timestep
  6,                                      !- Hour 1
  0,                                      !- Minute 1
  1,                                      !- Value Until Time 1
  22,                                     !- Hour 2
  0,                                      !- Minute 2
  0.25,                                   !- Value Until Time 2
  24,                                     !- Hour 3
  0,                                      !- Minute 3
  1;                                      !- Value Until Time 3

OS:Schedule:Day,
  {c0ae4f0f-1996-4ec8-b5d6-9aec90141526}, !- Handle
  OfficeMedium INFIL_SCH_PNNL_Sat,        !- Name
  {bbee1023-96ea-470b-b1d0-c016dc323708}, !- Schedule Type Limits Name
  ,                                       !- Interpolate to Timestep
  6,                                      !- Hour 1
  0,                                      !- Minute 1
  1,                                      !- Value Until Time 1
  18,                                     !- Hour 2
  0,                                      !- Minute 2
  0.25,                                   !- Value Until Time 2
  24,                                     !- Hour 3
  0,                                      !- Minute 3
  1;                                      !- Value Until Time 3

OS:Schedule:Day,
  {a58cf16e-af76-4585-a0cb-934c8da244a3}, !- Handle
  OfficeMedium INFIL_SCH_PNNL_Default 1,  !- Name
  {bbee1023-96ea-470b-b1d0-c016dc323708}, !- Schedule Type Limits Name
  ,                                       !- Interpolate to Timestep
  24,                                     !- Hour 1
  0,                                      !- Minute 1
  1;                                      !- Value Until Time 1

OS:Schedule:Day,
  {9d3a3e6e-eea4-4720-a9c5-3b5e08776d01}, !- Handle
  OfficeMedium INFIL_SCH_PNNL_Wkdy_SmrDsn 1, !- Name
  {bbee1023-96ea-470b-b1d0-c016dc323708}, !- Schedule Type Limits Name
  ,                                       !- Interpolate to Timestep
  6,                                      !- Hour 1
  0,                                      !- Minute 1
  1,                                      !- Value Until Time 1
  22,                                     !- Hour 2
  0,                                      !- Minute 2
  0.25,                                   !- Value Until Time 2
  24,                                     !- Hour 3
  0,                                      !- Minute 3
  1;                                      !- Value Until Time 3

OS:Schedule:Day,
  {7ca0f108-60cb-463c-9adc-161c3e1f9620}, !- Handle
  OfficeMedium INFIL_SCH_PNNL_Sat_WntrDsn 1, !- Name
  {bbee1023-96ea-470b-b1d0-c016dc323708}, !- Schedule Type Limits Name
  ,                                       !- Interpolate to Timestep
  6,                                      !- Hour 1
  0,                                      !- Minute 1
  1,                                      !- Value Until Time 1
  18,                                     !- Hour 2
  0,                                      !- Minute 2
  0.25,                                   !- Value Until Time 2
  24,                                     !- Hour 3
  0,                                      !- Minute 3
  1;                                      !- Value Until Time 3

OS:Schedule:Rule,
  {13203416-81b1-4f72-b20b-a3599194a477}, !- Handle
  Schedule Rule 1,                        !- Name
  {1fc5418e-f81e-49cb-a7b0-e6abb53b5e9a}, !- Schedule Ruleset Name
  0,                                      !- Rule Order
  {9b1bd328-412d-428f-9f62-a69fdaf01fe4}, !- Day Schedule Name
  No,                                     !- Apply Sunday
  Yes,                                    !- Apply Monday
  Yes,                                    !- Apply Tuesday
  Yes,                                    !- Apply Wednesday
  Yes,                                    !- Apply Thursday
  Yes,                                    !- Apply Friday
  No,                                     !- Apply Saturday
  DateRange,                              !- Date Specification Type
  1,                                      !- Start Month
  1,                                      !- Start Day
  12,                                     !- End Month
  31;                                     !- End Day

OS:Schedule:Day,
  {9b1bd328-412d-428f-9f62-a69fdaf01fe4}, !- Handle
  Schedule Day 2,                         !- Name
  {bbee1023-96ea-470b-b1d0-c016dc323708}, !- Schedule Type Limits Name
  ,                                       !- Interpolate to Timestep
  6,                                      !- Hour 1
  0,                                      !- Minute 1
  1,                                      !- Value Until Time 1
  22,                                     !- Hour 2
  0,                                      !- Minute 2
  0.25,                                   !- Value Until Time 2
  24,                                     !- Hour 3
  0,                                      !- Minute 3
  1;                                      !- Value Until Time 3

OS:YearDescription,
  {8621257b-05ee-4a43-9fe1-fd0c1d34e2d5}, !- Handle
  ,                                       !- Calendar Year
  Sunday;                                 !- Day of Week for Start Day

OS:Schedule:Rule,
  {b58ea754-a2e9-43c3-9acf-67fa0b226e47}, !- Handle
  Schedule Rule 2,                        !- Name
  {1fc5418e-f81e-49cb-a7b0-e6abb53b5e9a}, !- Schedule Ruleset Name
  1,                                      !- Rule Order
  {bb9ca1d0-0b02-4d35-a6bb-b28be9f3a53d}, !- Day Schedule Name
  No,                                     !- Apply Sunday
  No,                                     !- Apply Monday
  No,                                     !- Apply Tuesday
  No,                                     !- Apply Wednesday
  No,                                     !- Apply Thursday
  No,                                     !- Apply Friday
  Yes,                                    !- Apply Saturday
  DateRange,                              !- Date Specification Type
  1,                                      !- Start Month
  1,                                      !- Start Day
  12,                                     !- End Month
  31;                                     !- End Day

OS:Schedule:Day,
  {bb9ca1d0-0b02-4d35-a6bb-b28be9f3a53d}, !- Handle
  Schedule Day 3,                         !- Name
  {bbee1023-96ea-470b-b1d0-c016dc323708}, !- Schedule Type Limits Name
  ,                                       !- Interpolate to Timestep
  6,                                      !- Hour 1
  0,                                      !- Minute 1
  1,                                      !- Value Until Time 1
  18,                                     !- Hour 2
  0,                                      !- Minute 2
  0.25,                                   !- Value Until Time 2
  24,                                     !- Hour 3
  0,                                      !- Minute 3
  1;                                      !- Value Until Time 3

OS:Schedule:Ruleset,
  {8f439ac3-15c7-4d0d-8a4b-9130bd139843}, !- Handle
  Generic Office Heating,                 !- Name
  {067bc222-a872-4c50-9d9e-a80e4b51efb3}, !- Schedule Type Limits Name
  {e4d0a5f5-babd-4151-8ff9-756e132ac1a4}, !- Default Day Schedule Name
  {35435a4e-d556-42fc-8081-698f086807b9}, !- Summer Design Day Schedule Name
  {ef0fc1bd-12b3-4276-82fd-925a703ae82f}, !- Winter Design Day Schedule Name
  {4412f9df-8f53-4536-9e87-fee9cfd1a76e}; !- Holiday Schedule Name

OS:Schedule:Day,
  {e4d0a5f5-babd-4151-8ff9-756e132ac1a4}, !- Handle
  Schedule Day 4,                         !- Name
  {067bc222-a872-4c50-9d9e-a80e4b51efb3}, !- Schedule Type Limits Name
  ,                                       !- Interpolate to Timestep
  24,                                     !- Hour 1
  0,                                      !- Minute 1
  15.6;                                   !- Value Until Time 1

OS:Schedule:Day,
  {ceb6a55f-3df7-4e92-91fa-a210990a8be8}, !- Handle
  OfficeMedium HTGSETP_SCH_YES_OPTIMUM_Default, !- Name
  {067bc222-a872-4c50-9d9e-a80e4b51efb3}, !- Schedule Type Limits Name
  ,                                       !- Interpolate to Timestep
  24,                                     !- Hour 1
  0,                                      !- Minute 1
  15.6;                                   !- Value Until Time 1

OS:Schedule:Day,
  {0b9b0251-ac1d-40a0-bf9c-c1e36e6e7db3}, !- Handle
  OfficeMedium HTGSETP_SCH_YES_OPTIMUM_Default_SmrDsn, !- Name
  {067bc222-a872-4c50-9d9e-a80e4b51efb3}, !- Schedule Type Limits Name
  ,                                       !- Interpolate to Timestep
  24,                                     !- Hour 1
  0,                                      !- Minute 1
  15.6;                                   !- Value Until Time 1

OS:Schedule:Day,
  {de383588-b16a-4a3d-b372-f9f909f85f4a}, !- Handle
  OfficeMedium HTGSETP_SCH_YES_OPTIMUM_WntrDsn, !- Name
  {067bc222-a872-4c50-9d9e-a80e4b51efb3}, !- Schedule Type Limits Name
  ,                                       !- Interpolate to Timestep
  5,                                      !- Hour 1
  0,                                      !- Minute 1
  15.6,                                   !- Value Until Time 1
  6,                                      !- Hour 2
  0,                                      !- Minute 2
  17.6,                                   !- Value Until Time 2
  7,                                      !- Hour 3
  0,                                      !- Minute 3
  19.6,                                   !- Value Until Time 3
  22,                                     !- Hour 4
  0,                                      !- Minute 4
  21,                                     !- Value Until Time 4
  24,                                     !- Hour 5
  0,                                      !- Minute 5
  15.6;                                   !- Value Until Time 5

OS:Schedule:Day,
  {5e0d6f55-db84-434a-912c-808339ff1692}, !- Handle
  OfficeMedium HTGSETP_SCH_YES_OPTIMUM_Wkdy, !- Name
  {067bc222-a872-4c50-9d9e-a80e4b51efb3}, !- Schedule Type Limits Name
  ,                                       !- Interpolate to Timestep
  5,                                      !- Hour 1
  0,                                      !- Minute 1
  15.6,                                   !- Value Until Time 1
  6,                                      !- Hour 2
  0,                                      !- Minute 2
  17.8,                                   !- Value Until Time 2
  7,                                      !- Hour 3
  0,                                      !- Minute 3
  20,                                     !- Value Until Time 3
  22,                                     !- Hour 4
  0,                                      !- Minute 4
  21,                                     !- Value Until Time 4
  24,                                     !- Hour 5
  0,                                      !- Minute 5
  15.6;                                   !- Value Until Time 5

OS:Schedule:Day,
  {5583fd33-110e-444a-833e-b89a1b3c6094}, !- Handle
  OfficeMedium HTGSETP_SCH_YES_OPTIMUM_Sat, !- Name
  {067bc222-a872-4c50-9d9e-a80e4b51efb3}, !- Schedule Type Limits Name
  ,                                       !- Interpolate to Timestep
  5,                                      !- Hour 1
  0,                                      !- Minute 1
  15.6,                                   !- Value Until Time 1
  6,                                      !- Hour 2
  0,                                      !- Minute 2
  17.8,                                   !- Value Until Time 2
  7,                                      !- Hour 3
  0,                                      !- Minute 3
  20,                                     !- Value Until Time 3
  17,                                     !- Hour 4
  0,                                      !- Minute 4
  21,                                     !- Value Until Time 4
  24,                                     !- Hour 5
  0,                                      !- Minute 5
  15.6;                                   !- Value Until Time 5

OS:Schedule:Day,
  {4412f9df-8f53-4536-9e87-fee9cfd1a76e}, !- Handle
  OfficeMedium HTGSETP_SCH_YES_OPTIMUM_Default 1, !- Name
  {067bc222-a872-4c50-9d9e-a80e4b51efb3}, !- Schedule Type Limits Name
  ,                                       !- Interpolate to Timestep
  24,                                     !- Hour 1
  0,                                      !- Minute 1
  15.6;                                   !- Value Until Time 1

OS:Schedule:Day,
  {35435a4e-d556-42fc-8081-698f086807b9}, !- Handle
  OfficeMedium HTGSETP_SCH_YES_OPTIMUM_Default_SmrDsn 1, !- Name
  {067bc222-a872-4c50-9d9e-a80e4b51efb3}, !- Schedule Type Limits Name
  ,                                       !- Interpolate to Timestep
  24,                                     !- Hour 1
  0,                                      !- Minute 1
  15.6;                                   !- Value Until Time 1

OS:Schedule:Day,
  {ef0fc1bd-12b3-4276-82fd-925a703ae82f}, !- Handle
  OfficeMedium HTGSETP_SCH_YES_OPTIMUM_WntrDsn 1, !- Name
  {067bc222-a872-4c50-9d9e-a80e4b51efb3}, !- Schedule Type Limits Name
  ,                                       !- Interpolate to Timestep
  5,                                      !- Hour 1
  0,                                      !- Minute 1
  15.6,                                   !- Value Until Time 1
  6,                                      !- Hour 2
  0,                                      !- Minute 2
  17.6,                                   !- Value Until Time 2
  7,                                      !- Hour 3
  0,                                      !- Minute 3
  19.6,                                   !- Value Until Time 3
  22,                                     !- Hour 4
  0,                                      !- Minute 4
  21,                                     !- Value Until Time 4
  24,                                     !- Hour 5
  0,                                      !- Minute 5
  15.6;                                   !- Value Until Time 5

OS:Schedule:Rule,
  {e91ff210-bbb0-47fc-93f4-608ae78f007e}, !- Handle
  Schedule Rule 3,                        !- Name
  {8f439ac3-15c7-4d0d-8a4b-9130bd139843}, !- Schedule Ruleset Name
  0,                                      !- Rule Order
  {cb240d3c-050b-4ac3-b1bf-f87d96751dec}, !- Day Schedule Name
  No,                                     !- Apply Sunday
  Yes,                                    !- Apply Monday
  Yes,                                    !- Apply Tuesday
  Yes,                                    !- Apply Wednesday
  Yes,                                    !- Apply Thursday
  Yes,                                    !- Apply Friday
  No,                                     !- Apply Saturday
  DateRange,                              !- Date Specification Type
  1,                                      !- Start Month
  1,                                      !- Start Day
  12,                                     !- End Month
  31;                                     !- End Day

OS:Schedule:Day,
  {cb240d3c-050b-4ac3-b1bf-f87d96751dec}, !- Handle
  Schedule Day 5,                         !- Name
  {067bc222-a872-4c50-9d9e-a80e4b51efb3}, !- Schedule Type Limits Name
  ,                                       !- Interpolate to Timestep
  5,                                      !- Hour 1
  0,                                      !- Minute 1
  15.6,                                   !- Value Until Time 1
  6,                                      !- Hour 2
  0,                                      !- Minute 2
  17.8,                                   !- Value Until Time 2
  7,                                      !- Hour 3
  0,                                      !- Minute 3
  20,                                     !- Value Until Time 3
  22,                                     !- Hour 4
  0,                                      !- Minute 4
  21,                                     !- Value Until Time 4
  24,                                     !- Hour 5
  0,                                      !- Minute 5
  15.6;                                   !- Value Until Time 5

OS:Schedule:Rule,
  {73234b3e-4289-49ed-aeb1-0297f6227358}, !- Handle
  Schedule Rule 4,                        !- Name
  {8f439ac3-15c7-4d0d-8a4b-9130bd139843}, !- Schedule Ruleset Name
  1,                                      !- Rule Order
  {7c5954de-7386-4294-9ec0-3686cc72814b}, !- Day Schedule Name
  No,                                     !- Apply Sunday
  No,                                     !- Apply Monday
  No,                                     !- Apply Tuesday
  No,                                     !- Apply Wednesday
  No,                                     !- Apply Thursday
  No,                                     !- Apply Friday
  Yes,                                    !- Apply Saturday
  DateRange,                              !- Date Specification Type
  1,                                      !- Start Month
  1,                                      !- Start Day
  12,                                     !- End Month
  31;                                     !- End Day

OS:Schedule:Day,
  {7c5954de-7386-4294-9ec0-3686cc72814b}, !- Handle
  Schedule Day 6,                         !- Name
  {067bc222-a872-4c50-9d9e-a80e4b51efb3}, !- Schedule Type Limits Name
  ,                                       !- Interpolate to Timestep
  5,                                      !- Hour 1
  0,                                      !- Minute 1
  15.6,                                   !- Value Until Time 1
  6,                                      !- Hour 2
  0,                                      !- Minute 2
  17.8,                                   !- Value Until Time 2
  7,                                      !- Hour 3
  0,                                      !- Minute 3
  20,                                     !- Value Until Time 3
  17,                                     !- Hour 4
  0,                                      !- Minute 4
  21,                                     !- Value Until Time 4
  24,                                     !- Hour 5
  0,                                      !- Minute 5
  15.6;                                   !- Value Until Time 5

OS:Schedule:Ruleset,
  {13984fd6-0dcf-493c-aa7a-b0e7b273172a}, !- Handle
  Generic Office Equipment,               !- Name
  {bbee1023-96ea-470b-b1d0-c016dc323708}, !- Schedule Type Limits Name
  {0d0ce17d-9533-410f-8627-eaf25f39e696}, !- Default Day Schedule Name
  {6ce79c4d-e093-46ca-86f7-c5306092b8d0}, !- Summer Design Day Schedule Name
  {c1d179bd-0dea-40c5-b4bc-6fb69a008134}, !- Winter Design Day Schedule Name
  {07b9fdbe-f9b6-43c8-ae6c-00dc643f1e16}; !- Holiday Schedule Name

OS:Schedule:Day,
  {0d0ce17d-9533-410f-8627-eaf25f39e696}, !- Handle
  Schedule Day 7,                         !- Name
  {bbee1023-96ea-470b-b1d0-c016dc323708}, !- Schedule Type Limits Name
  ,                                       !- Interpolate to Timestep