
OS:Version,
  {ca59d246-f425-48d7-ab8c-3ffc8cbc80c3}, !- Handle
  3.0.1;                                  !- Version Identifier

OS:Building,
  {5d3e3db7-2920-4108-8346-5b0221716ed4}, !- Handle
  Building 1,                             !- Name
  ,                                       !- Building Sector Type
  -0,                                     !- North Axis {deg}
  ,                                       !- Nominal Floor to Floor Height {m}
  ,                                       !- Space Type Name
  {7e151c97-f57d-4e16-88c4-7c61807d1a90}, !- Default Construction Set Name
  ,                                       !- Default Schedule Set Name
  ,                                       !- Standards Number of Stories
  ,                                       !- Standards Number of Above Ground Stories
  ,                                       !- Standards Template
  MediumOffice;                           !- Standards Building Type

OS:Facility,
  {5cda983e-6f13-4df9-8061-6acf801db09b}; !- Handle

OS:Site,
  {4560dbb3-4bb9-48d2-bce6-8ed43f3e3fa6}, !- Handle
  Site 1,                                 !- Name
  ,                                       !- Latitude {deg}
  ,                                       !- Longitude {deg}
  ,                                       !- Time Zone {hr}
  ,                                       !- Elevation {m}
  City;                                   !- Terrain

OS:SimulationControl,
  {95efb072-52f4-46d8-89d2-a80a05c6d498}, !- Handle
  Yes,                                    !- Do Zone Sizing Calculation
  Yes,                                    !- Do System Sizing Calculation
  Yes,                                    !- Do Plant Sizing Calculation
  No,                                     !- Run Simulation for Sizing Periods
  Yes,                                    !- Run Simulation for Weather File Run Periods
  ,                                       !- Loads Convergence Tolerance Value {W}
  ,                                       !- Temperature Convergence Tolerance Value {deltaC}
  FullExteriorWithReflections;            !- Solar Distribution

OS:Sizing:Parameters,
  {9474d662-7e78-489e-bd05-c3b4ff17e78b}, !- Handle
  1.25,                                   !- Heating Sizing Factor
  1.15;                                   !- Cooling Sizing Factor

OS:Timestep,
  {9feaed37-9a32-46e5-881a-ac02a87d3948}, !- Handle
  6;                                      !- Number of Timesteps per Hour

OS:ShadowCalculation,
  {a1d326be-9427-4859-b4d8-c9b95899ea35}, !- Handle
  PolygonClipping,                        !- Shading Calculation Method
  Periodic,                               !- Shading Calculation Update Frequency Method
  30,                                     !- Shading Calculation Update Frequency
  15000,                                  !- Maximum Figures in Shadow Overlap Calculations
  ,                                       !- Polygon Clipping Algorithm
  512,                                    !- Pixel Counting Resolution
  ,                                       !- Sky Diffuse Modeling Algorithm
  No,                                     !- Output External Shading Calculation Results
  No,                                     !- Disable Self-Shading Within Shading Zone Groups
  No;                                     !- Disable Self-Shading From Shading Zone Groups to Other Zones

OS:HeatBalanceAlgorithm,
  {bd1ee484-dfee-4d91-9970-06e7ecb342d6}, !- Handle
  ConductionTransferFunction,             !- Algorithm
  200;                                    !- Surface Temperature Upper Limit {C}

OS:RunPeriod,
  {10acfa6d-df97-4ebc-8472-b1135c5d65ba}, !- Handle
  Run Period 1,                           !- Name
  1,                                      !- Begin Month
  1,                                      !- Begin Day of Month
  1,                                      !- End Month
  31,                                     !- End Day of Month
  ,                                       !- Use Weather File Holidays and Special Days
  ,                                       !- Use Weather File Daylight Saving Period
  ,                                       !- Apply Weekend Holiday Rule
  ,                                       !- Use Weather File Rain Indicators
  ,                                       !- Use Weather File Snow Indicators
  ;                                       !- Number of Times Runperiod to be Repeated

OS:LifeCycleCost:Parameters,
  {53dbd51d-6929-4916-93bd-2289d8f108d8}, !- Handle
  ,                                       !- Analysis Type
  ,                                       !- Discounting Convention
  ,                                       !- Inflation Approach
  ,                                       !- Real Discount Rate
  ,                                       !- Nominal Discount Rate
  ,                                       !- Inflation
  ,                                       !- Base Date Month
  ,                                       !- Base Date Year
  ,                                       !- Service Date Month
  ,                                       !- Service Date Year
  ;                                       !- Length of Study Period in Years

OS:WeatherFile,
  {1657add0-f8fa-4504-acb9-aa974b768142}, !- Handle
  Boston Logan IntL Arpt,                 !- City
  MA,                                     !- State Province Region
  USA,                                    !- Country
  TMY3,                                   !- Data Source
  725090,                                 !- WMO Number
  42.37,                                  !- Latitude {deg}
  -71.02,                                 !- Longitude {deg}
  -5,                                     !- Time Zone {hr}
  6,                                      !- Elevation {m}
  C:/Users/Administrator/ladybug_tools/resources/weather/USA_MA_Boston-Logan.Intl.AP.725090_TMY3/USA_MA_Boston-Logan.Intl.AP.725090_TMY3.epw, !- Url
  B65824C3;                               !- Checksum

OS:ScheduleTypeLimits,
  {d1e8f328-424a-4958-815b-f091453a0b2f}, !- Handle
  Temperature,                            !- Name
  -273.15,                                !- Lower Limit Value
  ,                                       !- Upper Limit Value
  Continuous,                             !- Numeric Type
  Temperature;                            !- Unit Type

OS:ScheduleTypeLimits,
  {efeb4e12-e575-4471-a231-a1adc8fecc23}, !- Handle
  Activity Level,                         !- Name
  0,                                      !- Lower Limit Value
  ,                                       !- Upper Limit Value
  Continuous,                             !- Numeric Type
  ActivityLevel;                          !- Unit Type

OS:ScheduleTypeLimits,
  {86c6fe63-77db-467f-8c83-3530ca65d0f2}, !- Handle
  Fractional,                             !- Name
  0,                                      !- Lower Limit Value
  1,                                      !- Upper Limit Value
  Continuous,                             !- Numeric Type
  Dimensionless;                          !- Unit Type

OS:Schedule:Ruleset,
  {641a3a74-47dd-40b3-ae3f-7b5137e4224a}, !- Handle
  Generic Office Infiltration,            !- Name
  {86c6fe63-77db-467f-8c83-3530ca65d0f2}, !- Schedule Type Limits Name
  {8dd37c19-b86d-42f9-b7a9-5813b764af8f}, !- Default Day Schedule Name
  {ae7da4e3-887b-4181-ad0b-9397b01a740a}, !- Summer Design Day Schedule Name
  {e8ab3ec7-227b-48ea-840e-7904d25e3f5f}, !- Winter Design Day Schedule Name
  {4907063b-283b-4b49-b9c4-bdca54bd2ee4}; !- Holiday Schedule Name

OS:Schedule:Day,
  {8dd37c19-b86d-42f9-b7a9-5813b764af8f}, !- Handle
  Schedule Day 1,                         !- Name
  {86c6fe63-77db-467f-8c83-3530ca65d0f2}, !- Schedule Type Limits Name
  ,                                       !- Interpolate to Timestep
  24,                                     !- Hour 1
  0,                                      !- Minute 1
  1;                                      !- Value Until Time 1

OS:Schedule:Day,
  {8ca11585-a461-4fb5-8459-82aae969c43b}, !- Handle
  OfficeMedium INFIL_SCH_PNNL_Default,    !- Name
  {86c6fe63-77db-467f-8c83-3530ca65d0f2}, !- Schedule Type Limits Name
  ,                                       !- Interpolate to Timestep
  24,                                     !- Hour 1
  0,                                      !- Minute 1
  1;                                      !- Value Until Time 1

OS:Schedule:Day,
  {b84bed18-6164-45ce-8c4c-7309940be2aa}, !- Handle
  OfficeMedium INFIL_SCH_PNNL_Wkdy_SmrDsn, !- Name
  {86c6fe63-77db-467f-8c83-3530ca65d0f2}, !- Schedule Type Limits Name
  ,                                       !- Interpolate to Timestep
  6,                                      !- Hour 1
  0,                                      !- Minute 1
  1,                                      !- Value Until Time 1
  22,                                     !- Hour 2
  0,                                      !- Minute 2
  0.25,                                   !- Value Until Time 2
  24,                                     !- Hour 3
  0,                                      !- Minute 3
  1;                                      !- Value Until Time 3

OS:Schedule:Day,
  {de1c1243-2d6d-491d-937b-03390723fe67}, !- Handle
  OfficeMedium INFIL_SCH_PNNL_Sat_WntrDsn, !- Name
  {86c6fe63-77db-467f-8c83-3530ca65d0f2}, !- Schedule Type Limits Name
  ,                                       !- Interpolate to Timestep
  6,                                      !- Hour 1
  0,                                      !- Minute 1
  1,                                      !- Value Until Time 1
  18,                                     !- Hour 2
  0,                                      !- Minute 2
  0.25,                                   !- Value Until Time 2
  24,                                     !- Hour 3
  0,                                      !- Minute 3
  1;                                      !- Value Until Time 3

OS:Schedule:Day,
  {fdb44936-68a6-44df-a870-f8869e2312e3}, !- Handle
  OfficeMedium INFIL_SCH_PNNL_Wkdy,       !- Name
  {86c6fe63-77db-467f-8c83-3530ca65d0f2}, !- Schedule Type Limits Name
  ,                                       !- Interpolate to Timestep
  6,                                      !- Hour 1
  0,                                      !- Minute 1
  1,                                      !- Value Until Time 1
  22,                                     !- Hour 2
  0,                                      !- Minute 2
  0.25,                                   !- Value Until Time 2
  24,                                     !- Hour 3
  0,                                      !- Minute 3
  1;                                      !- Value Until Time 3

OS:Schedule:Day,
  {27de8a70-e9b4-4fac-b906-2a660dc61020}, !- Handle
  OfficeMedium INFIL_SCH_PNNL_Sat,        !- Name
  {86c6fe63-77db-467f-8c83-3530ca65d0f2}, !- Schedule Type Limits Name
  ,                                       !- Interpolate to Timestep
  6,                                      !- Hour 1
  0,                                      !- Minute 1
  1,                                      !- Value Until Time 1
  18,                                     !- Hour 2
  0,                                      !- Minute 2
  0.25,                                   !- Value Until Time 2
  24,                                     !- Hour 3
  0,                                      !- Minute 3
  1;                                      !- Value Until Time 3

OS:Schedule:Day,
  {4907063b-283b-4b49-b9c4-bdca54bd2ee4}, !- Handle
  OfficeMedium INFIL_SCH_PNNL_Default 1,  !- Name
  {86c6fe63-77db-467f-8c83-3530ca65d0f2}, !- Schedule Type Limits Name
  ,                                       !- Interpolate to Timestep
  24,                                     !- Hour 1
  0,                                      !- Minute 1
  1;                                      !- Value Until Time 1

OS:Schedule:Day,
  {ae7da4e3-887b-4181-ad0b-9397b01a740a}, !- Handle
  OfficeMedium INFIL_SCH_PNNL_Wkdy_SmrDsn 1, !- Name
  {86c6fe63-77db-467f-8c83-3530ca65d0f2}, !- Schedule Type Limits Name
  ,                                       !- Interpolate to Timestep
  6,                                      !- Hour 1
  0,                                      !- Minute 1
  1,                                      !- Value Until Time 1
  22,                                     !- Hour 2
  0,                                      !- Minute 2
  0.25,                                   !- Value Until Time 2
  24,                                     !- Hour 3
  0,                                      !- Minute 3
  1;                                      !- Value Until Time 3

OS:Schedule:Day,
  {e8ab3ec7-227b-48ea-840e-7904d25e3f5f}, !- Handle
  OfficeMedium INFIL_SCH_PNNL_Sat_WntrDsn 1, !- Name
  {86c6fe63-77db-467f-8c83-3530ca65d0f2}, !- Schedule Type Limits Name
  ,                                       !- Interpolate to Timestep
  6,                                      !- Hour 1
  0,                                      !- Minute 1
  1,                                      !- Value Until Time 1
  18,                                     !- Hour 2
  0,                                      !- Minute 2
  0.25,                                   !- Value Until Time 2
  24,                                     !- Hour 3
  0,                                      !- Minute 3
  1;                                      !- Value Until Time 3

OS:Schedule:Rule,
  {e6968654-4774-412e-9a9e-873878bb71da}, !- Handle
  Schedule Rule 1,                        !- Name
  {641a3a74-47dd-40b3-ae3f-7b5137e4224a}, !- Schedule Ruleset Name
  0,                                      !- Rule Order
  {75c0ba98-279b-47b2-a8da-ca64dfbd23c6}, !- Day Schedule Name
  No,                                     !- Apply Sunday
  Yes,                                    !- Apply Monday
  Yes,                                    !- Apply Tuesday
  Yes,                                    !- Apply Wednesday
  Yes,                                    !- Apply Thursday
  Yes,                                    !- Apply Friday
  No,                                     !- Apply Saturday
  DateRange,                              !- Date Specification Type
  1,                                      !- Start Month
  1,                                      !- Start Day
  12,                                     !- End Month
  31;                                     !- End Day

OS:Schedule:Day,
  {75c0ba98-279b-47b2-a8da-ca64dfbd23c6}, !- Handle
  Schedule Day 2,                         !- Name
  {86c6fe63-77db-467f-8c83-3530ca65d0f2}, !- Schedule Type Limits Name
  ,                                       !- Interpolate to Timestep
  6,                                      !- Hour 1
  0,                                      !- Minute 1
  1,                                      !- Value Until Time 1
  22,                                     !- Hour 2
  0,                                      !- Minute 2
  0.25,                                   !- Value Until Time 2
  24,                                     !- Hour 3
  0,                                      !- Minute 3
  1;                                      !- Value Until Time 3

OS:YearDescription,
  {e51f5fff-f3d6-4196-a7f2-5930d826adc8}, !- Handle
  ,                                       !- Calendar Year
  Sunday;                                 !- Day of Week for Start Day

OS:Schedule:Rule,
  {77107811-d8e7-4f2b-a30a-91dd3253afab}, !- Handle
  Schedule Rule 2,                        !- Name
  {641a3a74-47dd-40b3-ae3f-7b5137e4224a}, !- Schedule Ruleset Name
  1,                                      !- Rule Order
  {8302c071-c151-42a0-ad26-aa185e18456f}, !- Day Schedule Name
  No,                                     !- Apply Sunday
  No,                                     !- Apply Monday
  No,                                     !- Apply Tuesday
  No,                                     !- Apply Wednesday
  No,                                     !- Apply Thursday
  No,                                     !- Apply Friday
  Yes,                                    !- Apply Saturday
  DateRange,                              !- Date Specification Type
  1,                                      !- Start Month
  1,                                      !- Start Day
  12,                                     !- End Month
  31;                                     !- End Day

OS:Schedule:Day,
  {8302c071-c151-42a0-ad26-aa185e18456f}, !- Handle
  Schedule Day 3,                         !- Name
  {86c6fe63-77db-467f-8c83-3530ca65d0f2}, !- Schedule Type Limits Name
  ,                                       !- Interpolate to Timestep
  6,                                      !- Hour 1
  0,                                      !- Minute 1
  1,                                      !- Value Until Time 1
  18,                                     !- Hour 2
  0,                                      !- Minute 2
  0.25,                                   !- Value Until Time 2
  24,                                     !- Hour 3
  0,                                      !- Minute 3
  1;                                      !- Value Until Time 3

OS:Schedule:Ruleset,
  {53fa1cf0-d233-4484-bd4a-139ff55ba773}, !- Handle
  Generic Office Heating,                 !- Name
  {d1e8f328-424a-4958-815b-f091453a0b2f}, !- Schedule Type Limits Name
  {ea8785e0-b245-4d1e-adb5-ebb1577f1d5f}, !- Default Day Schedule Name
  {a0c7a582-f2e2-498d-be62-8dd21e2fb5ed}, !- Summer Design Day Schedule Name
  {c3408935-2f1b-4b1f-9bb9-a002d852e5da}, !- Winter Design Day Schedule Name
  {df824862-4418-4db5-9db9-674b20d20694}; !- Holiday Schedule Name

OS:Schedule:Day,
  {ea8785e0-b245-4d1e-adb5-ebb1577f1d5f}, !- Handle
  Schedule Day 4,                         !- Name
  {d1e8f328-424a-4958-815b-f091453a0b2f}, !- Schedule Type Limits Name
  ,                                       !- Interpolate to Timestep
  24,                                     !- Hour 1
  0,                                      !- Minute 1
  15.6;                                   !- Value Until Time 1

OS:Schedule:Day,
  {317db620-d543-4d33-abad-84cb79c3a305}, !- Handle
  OfficeMedium HTGSETP_SCH_YES_OPTIMUM_Default, !- Name
  {d1e8f328-424a-4958-815b-f091453a0b2f}, !- Schedule Type Limits Name
  ,                                       !- Interpolate to Timestep
  24,                                     !- Hour 1
  0,                                      !- Minute 1
  15.6;                                   !- Value Until Time 1

OS:Schedule:Day,
  {c9be15e2-14a5-439a-96d7-9b7d332c2f0e}, !- Handle
  OfficeMedium HTGSETP_SCH_YES_OPTIMUM_Default_SmrDsn, !- Name
  {d1e8f328-424a-4958-815b-f091453a0b2f}, !- Schedule Type Limits Name
  ,                                       !- Interpolate to Timestep
  24,                                     !- Hour 1
  0,                                      !- Minute 1
  15.6;                                   !- Value Until Time 1

OS:Schedule:Day,
  {b22d83e2-78e4-4023-a6e3-cbd34f6ec4ce}, !- Handle
  OfficeMedium HTGSETP_SCH_YES_OPTIMUM_WntrDsn, !- Name
  {d1e8f328-424a-4958-815b-f091453a0b2f}, !- Schedule Type Limits Name
  ,                                       !- Interpolate to Timestep
  5,                                      !- Hour 1
  0,                                      !- Minute 1
  15.6,                                   !- Value Until Time 1
  6,                                      !- Hour 2
  0,                                      !- Minute 2
  17.6,                                   !- Value Until Time 2
  7,                                      !- Hour 3
  0,                                      !- Minute 3
  19.6,                                   !- Value Until Time 3
  22,                                     !- Hour 4
  0,                                      !- Minute 4
  21,                                     !- Value Until Time 4
  24,                                     !- Hour 5
  0,                                      !- Minute 5
  15.6;                                   !- Value Until Time 5

OS:Schedule:Day,
  {8f28c67b-5606-4076-acbe-1feeac2c1bc4}, !- Handle
  OfficeMedium HTGSETP_SCH_YES_OPTIMUM_Wkdy, !- Name
  {d1e8f328-424a-4958-815b-f091453a0b2f}, !- Schedule Type Limits Name
  ,                                       !- Interpolate to Timestep
  5,                                      !- Hour 1
  0,                                      !- Minute 1
  15.6,                                   !- Value Until Time 1
  6,                                      !- Hour 2
  0,                                      !- Minute 2
  17.8,                                   !- Value Until Time 2
  7,                                      !- Hour 3
  0,                                      !- Minute 3
  20,                                     !- Value Until Time 3
  22,                                     !- Hour 4
  0,                                      !- Minute 4
  21,                                     !- Value Until Time 4
  24,                                     !- Hour 5
  0,                                      !- Minute 5
  15.6;                                   !- Value Until Time 5

OS:Schedule:Day,
  {01ad927f-feb2-4340-9dac-271730617302}, !- Handle
  OfficeMedium HTGSETP_SCH_YES_OPTIMUM_Sat, !- Name
  {d1e8f328-424a-4958-815b-f091453a0b2f}, !- Schedule Type Limits Name
  ,                                       !- Interpolate to Timestep
  5,                                      !- Hour 1
  0,                                      !- Minute 1
  15.6,                                   !- Value Until Time 1
  6,                                      !- Hour 2
  0,                                      !- Minute 2
  17.8,                                   !- Value Until Time 2
  7,                                      !- Hour 3
  0,                                      !- Minute 3
  20,                                     !- Value Until Time 3
  17,                                     !- Hour 4
  0,                                      !- Minute 4
  21,                                     !- Value Until Time 4
  24,                                     !- Hour 5
  0,                                      !- Minute 5
  15.6;                                   !- Value Until Time 5

OS:Schedule:Day,
  {df824862-4418-4db5-9db9-674b20d20694}, !- Handle
  OfficeMedium HTGSETP_SCH_YES_OPTIMUM_Default 1, !- Name
  {d1e8f328-424a-4958-815b-f091453a0b2f}, !- Schedule Type Limits Name
  ,                                       !- Interpolate to Timestep
  24,                                     !- Hour 1
  0,                                      !- Minute 1
  15.6;                                   !- Value Until Time 1

OS:Schedule:Day,
  {a0c7a582-f2e2-498d-be62-8dd21e2fb5ed}, !- Handle
  OfficeMedium HTGSETP_SCH_YES_OPTIMUM_Default_SmrDsn 1, !- Name
  {d1e8f328-424a-4958-815b-f091453a0b2f}, !- Schedule Type Limits Name
  ,                                       !- Interpolate to Timestep
  24,                                     !- Hour 1
  0,                                      !- Minute 1
  15.6;                                   !- Value Until Time 1

OS:Schedule:Day,
  {c3408935-2f1b-4b1f-9bb9-a002d852e5da}, !- Handle
  OfficeMedium HTGSETP_SCH_YES_OPTIMUM_WntrDsn 1, !- Name
  {d1e8f328-424a-4958-815b-f091453a0b2f}, !- Schedule Type Limits Name
  ,                                       !- Interpolate to Timestep
  5,                                      !- Hour 1
  0,                                      !- Minute 1
  15.6,                                   !- Value Until Time 1
  6,                                      !- Hour 2
  0,                                      !- Minute 2
  17.6,                                   !- Value Until Time 2
  7,                                      !- Hour 3
  0,                                      !- Minute 3
  19.6,                                   !- Value Until Time 3
  22,                                     !- Hour 4
  0,                                      !- Minute 4
  21,                                     !- Value Until Time 4
  24,                                     !- Hour 5
  0,                                      !- Minute 5
  15.6;                                   !- Value Until Time 5

OS:Schedule:Rule,
  {482616ca-f58c-48a5-aad9-675f2cd8e42b}, !- Handle
  Schedule Rule 3,                        !- Name
  {53fa1cf0-d233-4484-bd4a-139ff55ba773}, !- Schedule Ruleset Name
  0,                                      !- Rule Order
  {9f7ac680-7862-40c5-951f-542c99130394}, !- Day Schedule Name
  No,                                     !- Apply Sunday
  Yes,                                    !- Apply Monday
  Yes,                                    !- Apply Tuesday
  Yes,                                    !- Apply Wednesday
  Yes,                                    !- Apply Thursday
  Yes,                                    !- Apply Friday
  No,                                     !- Apply Saturday
  DateRange,                              !- Date Specification Type
  1,                                      !- Start Month
  1,                                      !- Start Day
  12,                                     !- End Month
  31;                                     !- End Day

OS:Schedule:Day,
  {9f7ac680-7862-40c5-951f-542c99130394}, !- Handle
  Schedule Day 5,                         !- Name
  {d1e8f328-424a-4958-815b-f091453a0b2f}, !- Schedule Type Limits Name
  ,                                       !- Interpolate to Timestep
  5,                                      !- Hour 1
  0,                                      !- Minute 1
  15.6,                                   !- Value Until Time 1
  6,                                      !- Hour 2
  0,                                      !- Minute 2
  17.8,                                   !- Value Until Time 2
  7,                                      !- Hour 3
  0,                                      !- Minute 3
  20,                                     !- Value Until Time 3
  22,                                     !- Hour 4
  0,                                      !- Minute 4
  21,                                     !- Value Until Time 4
  24,                                     !- Hour 5
  0,                                      !- Minute 5
  15.6;                                   !- Value Until Time 5

OS:Schedule:Rule,
  {25655921-a3c3-47cf-9c07-f8532c5e14e5}, !- Handle
  Schedule Rule 4,                        !- Name
  {53fa1cf0-d233-4484-bd4a-139ff55ba773}, !- Schedule Ruleset Name
  1,                                      !- Rule Order
  {e50ebf43-6c0a-4f2e-90f8-00e28faa7415}, !- Day Schedule Name
  No,                                     !- Apply Sunday
  No,                                     !- Apply Monday
  No,                                     !- Apply Tuesday
  No,                                     !- Apply Wednesday
  No,                                     !- Apply Thursday
  No,                                     !- Apply Friday
  Yes,                                    !- Apply Saturday
  DateRange,                              !- Date Specification Type
  1,                                      !- Start Month
  1,                                      !- Start Day
  12,                                     !- End Month
  31;                                     !- End Day

OS:Schedule:Day,
  {e50ebf43-6c0a-4f2e-90f8-00e28faa7415}, !- Handle
  Schedule Day 6,                         !- Name
  {d1e8f328-424a-4958-815b-f091453a0b2f}, !- Schedule Type Limits Name
  ,                                       !- Interpolate to Timestep
  5,                                      !- Hour 1
  0,                                      !- Minute 1
  15.6,                                   !- Value Until Time 1
  6,                                      !- Hour 2
  0,                                      !- Minute 2
  17.8,                                   !- Value Until Time 2
  7,                                      !- Hour 3
  0,                                      !- Minute 3
  20,                                     !- Value Until Time 3
  17,                                     !- Hour 4
  0,                                      !- Minute 4
  21,                                     !- Value Until Time 4
  24,                                     !- Hour 5
  0,                                      !- Minute 5
  15.6;                                   !- Value Until Time 5

OS:Schedule:Ruleset,
  {56f769ad-5fa7-4d14-a47f-e2c1bc6c68ee}, !- Handle
  Generic Office Equipment,               !- Name
  {86c6fe63-77db-467f-8c83-3530ca65d0f2}, !- Schedule Type Limits Name
  {3ee7c50e-4538-49ca-9bbb-40e36538646d}, !- Default Day Schedule Name
  {1d6156e9-9e45-45f5-90d4-b00049863c5e}, !- Summer Design Day Schedule Name
  {a1d02be5-74bc-4fa8-a3ba-4b7d679da1ab}, !- Winter Design Day Schedule Name
  {dbe52998-7c2a-4e41-b79b-897da904d7de}; !- Holiday Schedule Name

OS:Schedule:Day,
  {3ee7c50e-4538-49ca-9bbb-40e36538646d}, !- Handle
  Schedule Day 7,                         !- Name
  {86c6fe63-77db-467f-8c83-3530ca65d0f2}, !- Schedule Type Limits Name
  ,                                       !- Interpolate to Timestep