
OS:Version,
  {8058c02d-aa47-4931-a9d2-3483631736cc}, !- Handle
  3.0.1;                                  !- Version Identifier

OS:Building,
  {ff53933e-3109-4d3a-b5b8-13f0d135bb04}, !- Handle
  Building 1,                             !- Name
  ,                                       !- Building Sector Type
  -0,                                     !- North Axis {deg}
  ,                                       !- Nominal Floor to Floor Height {m}
  ,                                       !- Space Type Name
  {02e5db54-a623-48f2-9577-793b4c730041}, !- Default Construction Set Name
  ,                                       !- Default Schedule Set Name
  ,                                       !- Standards Number of Stories
  ,                                       !- Standards Number of Above Ground Stories
  ,                                       !- Standards Template
  MediumOffice;                           !- Standards Building Type

OS:Facility,
  {ffb51fc7-1841-4d48-a8ac-8cb6c0fc70a9}; !- Handle

OS:Site,
  {6cc631a4-be2b-4186-9e33-7f0f01b697c9}, !- Handle
  Site 1,                                 !- Name
  ,                                       !- Latitude {deg}
  ,                                       !- Longitude {deg}
  ,                                       !- Time Zone {hr}
  ,                                       !- Elevation {m}
  City;                                   !- Terrain

OS:SimulationControl,
  {da8d4a06-67ff-495a-bc82-09860be53672}, !- Handle
  Yes,                                    !- Do Zone Sizing Calculation
  Yes,                                    !- Do System Sizing Calculation
  Yes,                                    !- Do Plant Sizing Calculation
  No,                                     !- Run Simulation for Sizing Periods
  Yes,                                    !- Run Simulation for Weather File Run Periods
  ,                                       !- Loads Convergence Tolerance Value {W}
  ,                                       !- Temperature Convergence Tolerance Value {deltaC}
  FullExteriorWithReflections;            !- Solar Distribution

OS:Sizing:Parameters,
  {679d7a35-e4fb-4d4f-97d4-a7c218b1b0e6}, !- Handle
  1.25,                                   !- Heating Sizing Factor
  1.15;                                   !- Cooling Sizing Factor

OS:Timestep,
  {f4360c92-a9a8-45c2-b09a-aafeb99f1c5b}, !- Handle
  6;                                      !- Number of Timesteps per Hour

OS:ShadowCalculation,
  {d1785bc2-2ce1-4417-8c57-ccac9b04febb}, !- Handle
  PolygonClipping,                        !- Shading Calculation Method
  Periodic,                               !- Shading Calculation Update Frequency Method
  30,                                     !- Shading Calculation Update Frequency
  15000,                                  !- Maximum Figures in Shadow Overlap Calculations
  ,                                       !- Polygon Clipping Algorithm
  512,                                    !- Pixel Counting Resolution
  ,                                       !- Sky Diffuse Modeling Algorithm
  No,                                     !- Output External Shading Calculation Results
  No,                                     !- Disable Self-Shading Within Shading Zone Groups
  No;                                     !- Disable Self-Shading From Shading Zone Groups to Other Zones

OS:HeatBalanceAlgorithm,
  {b83ab5e1-3f44-415c-8556-8f763c47945a}, !- Handle
  ConductionTransferFunction,             !- Algorithm
  200;                                    !- Surface Temperature Upper Limit {C}

OS:RunPeriod,
  {89181f41-4421-4b08-a6a8-f0f26cfcc563}, !- Handle
  Run Period 1,                           !- Name
  1,                                      !- Begin Month
  1,                                      !- Begin Day of Month
  1,                                      !- End Month
  31,                                     !- End Day of Month
  ,                                       !- Use Weather File Holidays and Special Days
  ,                                       !- Use Weather File Daylight Saving Period
  ,                                       !- Apply Weekend Holiday Rule
  ,                                       !- Use Weather File Rain Indicators
  ,                                       !- Use Weather File Snow Indicators
  ;                                       !- Number of Times Runperiod to be Repeated

OS:LifeCycleCost:Parameters,
  {967fb303-b2b1-4429-9e31-f0bab6ac20af}, !- Handle
  ,                                       !- Analysis Type
  ,                                       !- Discounting Convention
  ,                                       !- Inflation Approach
  ,                                       !- Real Discount Rate
  ,                                       !- Nominal Discount Rate
  ,                                       !- Inflation
  ,                                       !- Base Date Month
  ,                                       !- Base Date Year
  ,                                       !- Service Date Month
  ,                                       !- Service Date Year
  ;                                       !- Length of Study Period in Years

OS:WeatherFile,
  {6214f789-d6d5-45ad-9e3a-05a83296b08c}, !- Handle
  Boston Logan IntL Arpt,                 !- City
  MA,                                     !- State Province Region
  USA,                                    !- Country
  TMY3,                                   !- Data Source
  725090,                                 !- WMO Number
  42.37,                                  !- Latitude {deg}
  -71.02,                                 !- Longitude {deg}
  -5,                                     !- Time Zone {hr}
  6,                                      !- Elevation {m}
  C:/Users/Administrator/ladybug_tools/resources/weather/USA_MA_Boston-Logan.Intl.AP.725090_TMY3/USA_MA_Boston-Logan.Intl.AP.725090_TMY3.epw, !- Url
  B65824C3;                               !- Checksum

OS:ScheduleTypeLimits,
  {5e8b4664-e7a0-4d7e-beeb-0683cac20f89}, !- Handle
  Temperature,                            !- Name
  -273.15,                                !- Lower Limit Value
  ,                                       !- Upper Limit Value
  Continuous,                             !- Numeric Type
  Temperature;                            !- Unit Type

OS:ScheduleTypeLimits,
  {03179c49-faa0-44bc-99ed-3c83951673a0}, !- Handle
  Activity Level,                         !- Name
  0,                                      !- Lower Limit Value
  ,                                       !- Upper Limit Value
  Continuous,                             !- Numeric Type
  ActivityLevel;                          !- Unit Type

OS:ScheduleTypeLimits,
  {e2c89498-0246-4490-8588-57741f1487db}, !- Handle
  Fractional,                             !- Name
  0,                                      !- Lower Limit Value
  1,                                      !- Upper Limit Value
  Continuous,                             !- Numeric Type
  Dimensionless;                          !- Unit Type

OS:Schedule:Ruleset,
  {d62d30c6-c7a9-41ca-941f-9ed95ff5c7bb}, !- Handle
  Generic Office Infiltration,            !- Name
  {e2c89498-0246-4490-8588-57741f1487db}, !- Schedule Type Limits Name
  {3b3f8930-5f29-4025-ad0d-1c8a2cc23704}, !- Default Day Schedule Name
  {275b6d6a-fc53-40c7-affa-909001760a7b}, !- Summer Design Day Schedule Name
  {d2fac97e-d688-4de1-9748-298c83052884}, !- Winter Design Day Schedule Name
  {4dfc77e0-ea2f-4a0b-ab98-84c3b8865313}; !- Holiday Schedule Name

OS:Schedule:Day,
  {3b3f8930-5f29-4025-ad0d-1c8a2cc23704}, !- Handle
  Schedule Day 1,                         !- Name
  {e2c89498-0246-4490-8588-57741f1487db}, !- Schedule Type Limits Name
  ,                                       !- Interpolate to Timestep
  24,                                     !- Hour 1
  0,                                      !- Minute 1
  1;                                      !- Value Until Time 1

OS:Schedule:Day,
  {4640add5-94c7-4595-994f-59496a178e9f}, !- Handle
  OfficeMedium INFIL_SCH_PNNL_Default,    !- Name
  {e2c89498-0246-4490-8588-57741f1487db}, !- Schedule Type Limits Name
  ,                                       !- Interpolate to Timestep
  24,                                     !- Hour 1
  0,                                      !- Minute 1
  1;                                      !- Value Until Time 1

OS:Schedule:Day,
  {52b7e095-9949-450e-8c19-0c3ec9fc7e87}, !- Handle
  OfficeMedium INFIL_SCH_PNNL_Wkdy_SmrDsn, !- Name
  {e2c89498-0246-4490-8588-57741f1487db}, !- Schedule Type Limits Name
  ,                                       !- Interpolate to Timestep
  6,                                      !- Hour 1
  0,                                      !- Minute 1
  1,                                      !- Value Until Time 1
  22,                                     !- Hour 2
  0,                                      !- Minute 2
  0.25,                                   !- Value Until Time 2
  24,                                     !- Hour 3
  0,                                      !- Minute 3
  1;                                      !- Value Until Time 3

OS:Schedule:Day,
  {1f6e2068-675e-4319-9f13-3b4318761441}, !- Handle
  OfficeMedium INFIL_SCH_PNNL_Sat_WntrDsn, !- Name
  {e2c89498-0246-4490-8588-57741f1487db}, !- Schedule Type Limits Name
  ,                                       !- Interpolate to Timestep
  6,                                      !- Hour 1
  0,                                      !- Minute 1
  1,                                      !- Value Until Time 1
  18,                                     !- Hour 2
  0,                                      !- Minute 2
  0.25,                                   !- Value Until Time 2
  24,                                     !- Hour 3
  0,                                      !- Minute 3
  1;                                      !- Value Until Time 3

OS:Schedule:Day,
  {88c5014f-15a6-4da7-ad16-06e36b0af262}, !- Handle
  OfficeMedium INFIL_SCH_PNNL_Wkdy,       !- Name
  {e2c89498-0246-4490-8588-57741f1487db}, !- Schedule Type Limits Name
  ,                                       !- Interpolate to Timestep
  6,                                      !- Hour 1
  0,                                      !- Minute 1
  1,                                      !- Value Until Time 1
  22,                                     !- Hour 2
  0,                                      !- Minute 2
  0.25,                                   !- Value Until Time 2
  24,                                     !- Hour 3
  0,                                      !- Minute 3
  1;                                      !- Value Until Time 3

OS:Schedule:Day,
  {e8dd2a69-e1de-46b5-a4ed-872719d2be7c}, !- Handle
  OfficeMedium INFIL_SCH_PNNL_Sat,        !- Name
  {e2c89498-0246-4490-8588-57741f1487db}, !- Schedule Type Limits Name
  ,                                       !- Interpolate to Timestep
  6,                                      !- Hour 1
  0,                                      !- Minute 1
  1,                                      !- Value Until Time 1
  18,                                     !- Hour 2
  0,                                      !- Minute 2
  0.25,                                   !- Value Until Time 2
  24,                                     !- Hour 3
  0,                                      !- Minute 3
  1;                                      !- Value Until Time 3

OS:Schedule:Day,
  {4dfc77e0-ea2f-4a0b-ab98-84c3b8865313}, !- Handle
  OfficeMedium INFIL_SCH_PNNL_Default 1,  !- Name
  {e2c89498-0246-4490-8588-57741f1487db}, !- Schedule Type Limits Name
  ,                                       !- Interpolate to Timestep
  24,                                     !- Hour 1
  0,                                      !- Minute 1
  1;                                      !- Value Until Time 1

OS:Schedule:Day,
  {275b6d6a-fc53-40c7-affa-909001760a7b}, !- Handle
  OfficeMedium INFIL_SCH_PNNL_Wkdy_SmrDsn 1, !- Name
  {e2c89498-0246-4490-8588-57741f1487db}, !- Schedule Type Limits Name
  ,                                       !- Interpolate to Timestep
  6,                                      !- Hour 1
  0,                                      !- Minute 1
  1,                                      !- Value Until Time 1
  22,                                     !- Hour 2
  0,                                      !- Minute 2
  0.25,                                   !- Value Until Time 2
  24,                                     !- Hour 3
  0,                                      !- Minute 3
  1;                                      !- Value Until Time 3

OS:Schedule:Day,
  {d2fac97e-d688-4de1-9748-298c83052884}, !- Handle
  OfficeMedium INFIL_SCH_PNNL_Sat_WntrDsn 1, !- Name
  {e2c89498-0246-4490-8588-57741f1487db}, !- Schedule Type Limits Name
  ,                                       !- Interpolate to Timestep
  6,                                      !- Hour 1
  0,                                      !- Minute 1
  1,                                      !- Value Until Time 1
  18,                                     !- Hour 2
  0,                                      !- Minute 2
  0.25,                                   !- Value Until Time 2
  24,                                     !- Hour 3
  0,                                      !- Minute 3
  1;                                      !- Value Until Time 3

OS:Schedule:Rule,
  {f12cc728-4a32-426a-a5a6-2adcba31cc90}, !- Handle
  Schedule Rule 1,                        !- Name
  {d62d30c6-c7a9-41ca-941f-9ed95ff5c7bb}, !- Schedule Ruleset Name
  0,                                      !- Rule Order
  {4cf683bf-7081-4334-8872-4ce23defe87e}, !- Day Schedule Name
  No,                                     !- Apply Sunday
  Yes,                                    !- Apply Monday
  Yes,                                    !- Apply Tuesday
  Yes,                                    !- Apply Wednesday
  Yes,                                    !- Apply Thursday
  Yes,                                    !- Apply Friday
  No,                                     !- Apply Saturday
  DateRange,                              !- Date Specification Type
  1,                                      !- Start Month
  1,                                      !- Start Day
  12,                                     !- End Month
  31;                                     !- End Day

OS:Schedule:Day,
  {4cf683bf-7081-4334-8872-4ce23defe87e}, !- Handle
  Schedule Day 2,                         !- Name
  {e2c89498-0246-4490-8588-57741f1487db}, !- Schedule Type Limits Name
  ,                                       !- Interpolate to Timestep
  6,                                      !- Hour 1
  0,                                      !- Minute 1
  1,                                      !- Value Until Time 1
  22,                                     !- Hour 2
  0,                                      !- Minute 2
  0.25,                                   !- Value Until Time 2
  24,                                     !- Hour 3
  0,                                      !- Minute 3
  1;                                      !- Value Until Time 3

OS:YearDescription,
  {25dae087-de8f-4239-aff3-88fa9e306609}, !- Handle
  ,                                       !- Calendar Year
  Sunday;                                 !- Day of Week for Start Day

OS:Schedule:Rule,
  {345cd689-aa42-4d45-b4ba-433f9aff7a29}, !- Handle
  Schedule Rule 2,                        !- Name
  {d62d30c6-c7a9-41ca-941f-9ed95ff5c7bb}, !- Schedule Ruleset Name
  1,                                      !- Rule Order
  {075c14a0-1e72-47c5-942d-cfa2d3139934}, !- Day Schedule Name
  No,                                     !- Apply Sunday
  No,                                     !- Apply Monday
  No,                                     !- Apply Tuesday
  No,                                     !- Apply Wednesday
  No,                                     !- Apply Thursday
  No,                                     !- Apply Friday
  Yes,                                    !- Apply Saturday
  DateRange,                              !- Date Specification Type
  1,                                      !- Start Month
  1,                                      !- Start Day
  12,                                     !- End Month
  31;                                     !- End Day

OS:Schedule:Day,
  {075c14a0-1e72-47c5-942d-cfa2d3139934}, !- Handle
  Schedule Day 3,                         !- Name
  {e2c89498-0246-4490-8588-57741f1487db}, !- Schedule Type Limits Name
  ,                                       !- Interpolate to Timestep
  6,                                      !- Hour 1
  0,                                      !- Minute 1
  1,                                      !- Value Until Time 1
  18,                                     !- Hour 2
  0,                                      !- Minute 2
  0.25,                                   !- Value Until Time 2
  24,                                     !- Hour 3
  0,                                      !- Minute 3
  1;                                      !- Value Until Time 3

OS:Schedule:Ruleset,
  {90709ad7-c29d-4b96-91c9-cafbf7973007}, !- Handle
  Generic Office Heating,                 !- Name
  {5e8b4664-e7a0-4d7e-beeb-0683cac20f89}, !- Schedule Type Limits Name
  {f3cfb359-9ecd-4e3a-899c-1d8adc57fa16}, !- Default Day Schedule Name
  {9cdd26b4-7bd5-4c84-a1e5-f0353cba0122}, !- Summer Design Day Schedule Name
  {17ba12d3-e517-43db-8f39-b4577ab5c0ce}, !- Winter Design Day Schedule Name
  {41f456ac-4699-41a6-841b-e4cdbd70a8f0}; !- Holiday Schedule Name

OS:Schedule:Day,
  {f3cfb359-9ecd-4e3a-899c-1d8adc57fa16}, !- Handle
  Schedule Day 4,                         !- Name
  {5e8b4664-e7a0-4d7e-beeb-0683cac20f89}, !- Schedule Type Limits Name
  ,                                       !- Interpolate to Timestep
  24,                                     !- Hour 1
  0,                                      !- Minute 1
  15.6;                                   !- Value Until Time 1

OS:Schedule:Day,
  {7e950f7d-9919-487b-95bf-287a07911055}, !- Handle
  OfficeMedium HTGSETP_SCH_YES_OPTIMUM_Default, !- Name
  {5e8b4664-e7a0-4d7e-beeb-0683cac20f89}, !- Schedule Type Limits Name
  ,                                       !- Interpolate to Timestep
  24,                                     !- Hour 1
  0,                                      !- Minute 1
  15.6;                                   !- Value Until Time 1

OS:Schedule:Day,
  {737b42b5-5663-43d6-800b-69100eabc5ed}, !- Handle
  OfficeMedium HTGSETP_SCH_YES_OPTIMUM_Default_SmrDsn, !- Name
  {5e8b4664-e7a0-4d7e-beeb-0683cac20f89}, !- Schedule Type Limits Name
  ,                                       !- Interpolate to Timestep
  24,                                     !- Hour 1
  0,                                      !- Minute 1
  15.6;                                   !- Value Until Time 1

OS:Schedule:Day,
  {39c174f2-76bf-47cd-8bc0-d3bcfba07cfb}, !- Handle
  OfficeMedium HTGSETP_SCH_YES_OPTIMUM_WntrDsn, !- Name
  {5e8b4664-e7a0-4d7e-beeb-0683cac20f89}, !- Schedule Type Limits Name
  ,                                       !- Interpolate to Timestep
  5,                                      !- Hour 1
  0,                                      !- Minute 1
  15.6,                                   !- Value Until Time 1
  6,                                      !- Hour 2
  0,                                      !- Minute 2
  17.6,                                   !- Value Until Time 2
  7,                                      !- Hour 3
  0,                                      !- Minute 3
  19.6,                                   !- Value Until Time 3
  22,                                     !- Hour 4
  0,                                      !- Minute 4
  21,                                     !- Value Until Time 4
  24,                                     !- Hour 5
  0,                                      !- Minute 5
  15.6;                                   !- Value Until Time 5

OS:Schedule:Day,
  {10eed8b1-f4ce-47cc-8f7d-e02ef7c69be2}, !- Handle
  OfficeMedium HTGSETP_SCH_YES_OPTIMUM_Wkdy, !- Name
  {5e8b4664-e7a0-4d7e-beeb-0683cac20f89}, !- Schedule Type Limits Name
  ,                                       !- Interpolate to Timestep
  5,                                      !- Hour 1
  0,                                      !- Minute 1
  15.6,                                   !- Value Until Time 1
  6,                                      !- Hour 2
  0,                                      !- Minute 2
  17.8,                                   !- Value Until Time 2
  7,                                      !- Hour 3
  0,                                      !- Minute 3
  20,                                     !- Value Until Time 3
  22,                                     !- Hour 4
  0,                                      !- Minute 4
  21,                                     !- Value Until Time 4
  24,                                     !- Hour 5
  0,                                      !- Minute 5
  15.6;                                   !- Value Until Time 5

OS:Schedule:Day,
  {1fca673b-af50-4068-8a97-7fc7dddc2ab8}, !- Handle
  OfficeMedium HTGSETP_SCH_YES_OPTIMUM_Sat, !- Name
  {5e8b4664-e7a0-4d7e-beeb-0683cac20f89}, !- Schedule Type Limits Name
  ,                                       !- Interpolate to Timestep
  5,                                      !- Hour 1
  0,                                      !- Minute 1
  15.6,                                   !- Value Until Time 1
  6,                                      !- Hour 2
  0,                                      !- Minute 2
  17.8,                                   !- Value Until Time 2
  7,                                      !- Hour 3
  0,                                      !- Minute 3
  20,                                     !- Value Until Time 3
  17,                                     !- Hour 4
  0,                                      !- Minute 4
  21,                                     !- Value Until Time 4
  24,                                     !- Hour 5
  0,                                      !- Minute 5
  15.6;                                   !- Value Until Time 5

OS:Schedule:Day,
  {41f456ac-4699-41a6-841b-e4cdbd70a8f0}, !- Handle
  OfficeMedium HTGSETP_SCH_YES_OPTIMUM_Default 1, !- Name
  {5e8b4664-e7a0-4d7e-beeb-0683cac20f89}, !- Schedule Type Limits Name
  ,                                       !- Interpolate to Timestep
  24,                                     !- Hour 1
  0,                                      !- Minute 1
  15.6;                                   !- Value Until Time 1

OS:Schedule:Day,
  {9cdd26b4-7bd5-4c84-a1e5-f0353cba0122}, !- Handle
  OfficeMedium HTGSETP_SCH_YES_OPTIMUM_Default_SmrDsn 1, !- Name
  {5e8b4664-e7a0-4d7e-beeb-0683cac20f89}, !- Schedule Type Limits Name
  ,                                       !- Interpolate to Timestep
  24,                                     !- Hour 1
  0,                                      !- Minute 1
  15.6;                                   !- Value Until Time 1

OS:Schedule:Day,
  {17ba12d3-e517-43db-8f39-b4577ab5c0ce}, !- Handle
  OfficeMedium HTGSETP_SCH_YES_OPTIMUM_WntrDsn 1, !- Name
  {5e8b4664-e7a0-4d7e-beeb-0683cac20f89}, !- Schedule Type Limits Name
  ,                                       !- Interpolate to Timestep
  5,                                      !- Hour 1
  0,                                      !- Minute 1
  15.6,                                   !- Value Until Time 1
  6,                                      !- Hour 2
  0,                                      !- Minute 2
  17.6,                                   !- Value Until Time 2
  7,                                      !- Hour 3
  0,                                      !- Minute 3
  19.6,                                   !- Value Until Time 3
  22,                                     !- Hour 4
  0,                                      !- Minute 4
  21,                                     !- Value Until Time 4
  24,                                     !- Hour 5
  0,                                      !- Minute 5
  15.6;                                   !- Value Until Time 5

OS:Schedule:Rule,
  {ab0e33c2-3e77-4892-a5e0-f47c19db7b3c}, !- Handle
  Schedule Rule 3,                        !- Name
  {90709ad7-c29d-4b96-91c9-cafbf7973007}, !- Schedule Ruleset Name
  0,                                      !- Rule Order
  {79e19b3e-69d4-4a82-bfa3-1b516f72a8e5}, !- Day Schedule Name
  No,                                     !- Apply Sunday
  Yes,                                    !- Apply Monday
  Yes,                                    !- Apply Tuesday
  Yes,                                    !- Apply Wednesday
  Yes,                                    !- Apply Thursday
  Yes,                                    !- Apply Friday
  No,                                     !- Apply Saturday
  DateRange,                              !- Date Specification Type
  1,                                      !- Start Month
  1,                                      !- Start Day
  12,                                     !- End Month
  31;                                     !- End Day

OS:Schedule:Day,
  {79e19b3e-69d4-4a82-bfa3-1b516f72a8e5}, !- Handle
  Schedule Day 5,                         !- Name
  {5e8b4664-e7a0-4d7e-beeb-0683cac20f89}, !- Schedule Type Limits Name
  ,                                       !- Interpolate to Timestep
  5,                                      !- Hour 1
  0,                                      !- Minute 1
  15.6,                                   !- Value Until Time 1
  6,                                      !- Hour 2
  0,                                      !- Minute 2
  17.8,                                   !- Value Until Time 2
  7,                                      !- Hour 3
  0,                                      !- Minute 3
  20,                                     !- Value Until Time 3
  22,                                     !- Hour 4
  0,                                      !- Minute 4
  21,                                     !- Value Until Time 4
  24,                                     !- Hour 5
  0,                                      !- Minute 5
  15.6;                                   !- Value Until Time 5

OS:Schedule:Rule,
  {b084216b-a11e-488d-9963-75183ff630a7}, !- Handle
  Schedule Rule 4,                        !- Name
  {90709ad7-c29d-4b96-91c9-cafbf7973007}, !- Schedule Ruleset Name
  1,                                      !- Rule Order
  {0ec92146-6768-42f9-8dcb-4a94ec4885c5}, !- Day Schedule Name
  No,                                     !- Apply Sunday
  No,                                     !- Apply Monday
  No,                                     !- Apply Tuesday
  No,                                     !- Apply Wednesday
  No,                                     !- Apply Thursday
  No,                                     !- Apply Friday
  Yes,                                    !- Apply Saturday
  DateRange,                              !- Date Specification Type
  1,                                      !- Start Month
  1,                                      !- Start Day
  12,                                     !- End Month
  31;                                     !- End Day

OS:Schedule:Day,
  {0ec92146-6768-42f9-8dcb-4a94ec4885c5}, !- Handle
  Schedule Day 6,                         !- Name
  {5e8b4664-e7a0-4d7e-beeb-0683cac20f89}, !- Schedule Type Limits Name
  ,                                       !- Interpolate to Timestep
  5,                                      !- Hour 1
  0,                                      !- Minute 1
  15.6,                                   !- Value Until Time 1
  6,                                      !- Hour 2
  0,                                      !- Minute 2
  17.8,                                   !- Value Until Time 2
  7,                                      !- Hour 3
  0,                                      !- Minute 3
  20,                                     !- Value Until Time 3
  17,                                     !- Hour 4
  0,                                      !- Minute 4
  21,                                     !- Value Until Time 4
  24,                                     !- Hour 5
  0,                                      !- Minute 5
  15.6;                                   !- Value Until Time 5

OS:Schedule:Ruleset,
  {ed18fa7e-6350-400a-9496-b21df6bfecf3}, !- Handle
  Generic Office Equipment,               !- Name
  {e2c89498-0246-4490-8588-57741f1487db}, !- Schedule Type Limits Name
  {50d5830e-a73d-46bb-ae01-6ef41fc4f956}, !- Default Day Schedule Name
  {d40a63c0-4e50-4729-a8f3-4eff2a0b48b9}, !- Summer Design Day Schedule Name
  {2249e5eb-cb33-44c1-8368-59334178488e}, !- Winter Design Day Schedule Name
  {76ee8cc8-98d2-498c-affe-5ba9f7bf8a5a}; !- Holiday Schedule Name

OS:Schedule:Day,
  {50d5830e-a73d-46bb-ae01-6ef41fc4f956}, !- Handle
  Schedule Day 7,                         !- Name
  {e2c89498-0246-4490-8588-57741f1487db}, !- Schedule Type Limits Name
  ,                                       !- Interpolate to Timestep