
OS:Version,
  {d04c7c4e-ef2b-44e6-8159-bc4aa4393ccc}, !- Handle
  3.0.1;                                  !- Version Identifier

OS:Building,
  {908c8866-18ed-410f-a821-ce37d2759a29}, !- Handle
  Building 1,                             !- Name
  ,                                       !- Building Sector Type
  -0,                                     !- North Axis {deg}
  ,                                       !- Nominal Floor to Floor Height {m}
  ,                                       !- Space Type Name
  {a9e93e30-7872-4ca8-a4b0-a4c612c3f762}, !- Default Construction Set Name
  ,                                       !- Default Schedule Set Name
  ,                                       !- Standards Number of Stories
  ,                                       !- Standards Number of Above Ground Stories
  ,                                       !- Standards Template
  MediumOffice;                           !- Standards Building Type

OS:Facility,
  {b53d459b-6e26-4ed5-8dda-69f5dc84c43a}; !- Handle

OS:Site,
  {a6a30acd-0f1a-4ad3-86e8-a6c643294210}, !- Handle
  Site 1,                                 !- Name
  ,                                       !- Latitude {deg}
  ,                                       !- Longitude {deg}
  ,                                       !- Time Zone {hr}
  ,                                       !- Elevation {m}
  City;                                   !- Terrain

OS:SimulationControl,
  {874aeb8e-3132-4c16-9409-9319e7576da4}, !- Handle
  Yes,                                    !- Do Zone Sizing Calculation
  Yes,                                    !- Do System Sizing Calculation
  Yes,                                    !- Do Plant Sizing Calculation
  No,                                     !- Run Simulation for Sizing Periods
  Yes,                                    !- Run Simulation for Weather File Run Periods
  ,                                       !- Loads Convergence Tolerance Value {W}
  ,                                       !- Temperature Convergence Tolerance Value {deltaC}
  FullExteriorWithReflections;            !- Solar Distribution

OS:Sizing:Parameters,
  {3267fac7-519f-41b6-93d9-0710116a23e2}, !- Handle
  1.25,                                   !- Heating Sizing Factor
  1.15;                                   !- Cooling Sizing Factor

OS:Timestep,
  {cfb23c3b-2729-4283-abb4-b98e097210bb}, !- Handle
  6;                                      !- Number of Timesteps per Hour

OS:ShadowCalculation,
  {37b4660d-9990-44f8-82c5-c16a6d2e4486}, !- Handle
  PolygonClipping,                        !- Shading Calculation Method
  Periodic,                               !- Shading Calculation Update Frequency Method
  30,                                     !- Shading Calculation Update Frequency
  15000,                                  !- Maximum Figures in Shadow Overlap Calculations
  ,                                       !- Polygon Clipping Algorithm
  512,                                    !- Pixel Counting Resolution
  ,                                       !- Sky Diffuse Modeling Algorithm
  No,                                     !- Output External Shading Calculation Results
  No,                                     !- Disable Self-Shading Within Shading Zone Groups
  No;                                     !- Disable Self-Shading From Shading Zone Groups to Other Zones

OS:HeatBalanceAlgorithm,
  {0894b73b-4410-4906-90f8-e2cc1ba90f16}, !- Handle
  ConductionTransferFunction,             !- Algorithm
  200;                                    !- Surface Temperature Upper Limit {C}

OS:RunPeriod,
  {c37f110a-da50-457a-8151-a6cc0be53416}, !- Handle
  Run Period 1,                           !- Name
  1,                                      !- Begin Month
  1,                                      !- Begin Day of Month
  1,                                      !- End Month
  31,                                     !- End Day of Month
  ,                                       !- Use Weather File Holidays and Special Days
  ,                                       !- Use Weather File Daylight Saving Period
  ,                                       !- Apply Weekend Holiday Rule
  ,                                       !- Use Weather File Rain Indicators
  ,                                       !- Use Weather File Snow Indicators
  ;                                       !- Number of Times Runperiod to be Repeated

OS:LifeCycleCost:Parameters,
  {e9c85732-4d62-4f5d-91f8-0e4809f782e1}, !- Handle
  ,                                       !- Analysis Type
  ,                                       !- Discounting Convention
  ,                                       !- Inflation Approach
  ,                                       !- Real Discount Rate
  ,                                       !- Nominal Discount Rate
  ,                                       !- Inflation
  ,                                       !- Base Date Month
  ,                                       !- Base Date Year
  ,                                       !- Service Date Month
  ,                                       !- Service Date Year
  ;                                       !- Length of Study Period in Years

OS:WeatherFile,
  {2971e050-0d72-42c0-a4f5-a3c1194ee9a3}, !- Handle
  Boston Logan IntL Arpt,                 !- City
  MA,                                     !- State Province Region
  USA,                                    !- Country
  TMY3,                                   !- Data Source
  725090,                                 !- WMO Number
  42.37,                                  !- Latitude {deg}
  -71.02,                                 !- Longitude {deg}
  -5,                                     !- Time Zone {hr}
  6,                                      !- Elevation {m}
  C:/Users/Administrator/ladybug_tools/resources/weather/USA_MA_Boston-Logan.Intl.AP.725090_TMY3/USA_MA_Boston-Logan.Intl.AP.725090_TMY3.epw, !- Url
  B65824C3;                               !- Checksum

OS:ScheduleTypeLimits,
  {224a74c6-cd32-423a-8467-cd6b5038350d}, !- Handle
  Temperature,                            !- Name
  -273.15,                                !- Lower Limit Value
  ,                                       !- Upper Limit Value
  Continuous,                             !- Numeric Type
  Temperature;                            !- Unit Type

OS:ScheduleTypeLimits,
  {172e4178-2bbc-432d-b1e3-c947a53635d1}, !- Handle
  Activity Level,                         !- Name
  0,                                      !- Lower Limit Value
  ,                                       !- Upper Limit Value
  Continuous,                             !- Numeric Type
  ActivityLevel;                          !- Unit Type

OS:ScheduleTypeLimits,
  {f49e752b-b610-4cc0-b358-600e4d4663a9}, !- Handle
  Fractional,                             !- Name
  0,                                      !- Lower Limit Value
  1,                                      !- Upper Limit Value
  Continuous,                             !- Numeric Type
  Dimensionless;                          !- Unit Type

OS:Schedule:Ruleset,
  {a2e837a7-0399-4115-a9a1-67e528149d98}, !- Handle
  Generic Office Infiltration,            !- Name
  {f49e752b-b610-4cc0-b358-600e4d4663a9}, !- Schedule Type Limits Name
  {1e948b6a-eb13-4c67-8577-240e761db601}, !- Default Day Schedule Name
  {bda070a4-5220-497a-acf3-8a53f325c5f2}, !- Summer Design Day Schedule Name
  {a54018a8-1fc5-44b5-8d7a-6e04ee76e6f3}, !- Winter Design Day Schedule Name
  {f70350b5-94ce-48b3-a671-d1739c49e845}; !- Holiday Schedule Name

OS:Schedule:Day,
  {1e948b6a-eb13-4c67-8577-240e761db601}, !- Handle
  Schedule Day 1,                         !- Name
  {f49e752b-b610-4cc0-b358-600e4d4663a9}, !- Schedule Type Limits Name
  ,                                       !- Interpolate to Timestep
  24,                                     !- Hour 1
  0,                                      !- Minute 1
  1;                                      !- Value Until Time 1

OS:Schedule:Day,
  {5e37b1a6-53b9-468f-87e4-6b3525470d1c}, !- Handle
  OfficeMedium INFIL_SCH_PNNL_Default,    !- Name
  {f49e752b-b610-4cc0-b358-600e4d4663a9}, !- Schedule Type Limits Name
  ,                                       !- Interpolate to Timestep
  24,                                     !- Hour 1
  0,                                      !- Minute 1
  1;                                      !- Value Until Time 1

OS:Schedule:Day,
  {254c3a08-0020-4742-8a96-77f96cbf4af5}, !- Handle
  OfficeMedium INFIL_SCH_PNNL_Wkdy_SmrDsn, !- Name
  {f49e752b-b610-4cc0-b358-600e4d4663a9}, !- Schedule Type Limits Name
  ,                                       !- Interpolate to Timestep
  6,                                      !- Hour 1
  0,                                      !- Minute 1
  1,                                      !- Value Until Time 1
  22,                                     !- Hour 2
  0,                                      !- Minute 2
  0.25,                                   !- Value Until Time 2
  24,                                     !- Hour 3
  0,                                      !- Minute 3
  1;                                      !- Value Until Time 3

OS:Schedule:Day,
  {0e71a421-1180-4b1e-8552-985935458717}, !- Handle
  OfficeMedium INFIL_SCH_PNNL_Sat_WntrDsn, !- Name
  {f49e752b-b610-4cc0-b358-600e4d4663a9}, !- Schedule Type Limits Name
  ,                                       !- Interpolate to Timestep
  6,                                      !- Hour 1
  0,                                      !- Minute 1
  1,                                      !- Value Until Time 1
  18,                                     !- Hour 2
  0,                                      !- Minute 2
  0.25,                                   !- Value Until Time 2
  24,                                     !- Hour 3
  0,                                      !- Minute 3
  1;                                      !- Value Until Time 3

OS:Schedule:Day,
  {0b44973b-19b4-4f6f-ad4c-be78d7905ccc}, !- Handle
  OfficeMedium INFIL_SCH_PNNL_Wkdy,       !- Name
  {f49e752b-b610-4cc0-b358-600e4d4663a9}, !- Schedule Type Limits Name
  ,                                       !- Interpolate to Timestep
  6,                                      !- Hour 1
  0,                                      !- Minute 1
  1,                                      !- Value Until Time 1
  22,                                     !- Hour 2
  0,                                      !- Minute 2
  0.25,                                   !- Value Until Time 2
  24,                                     !- Hour 3
  0,                                      !- Minute 3
  1;                                      !- Value Until Time 3

OS:Schedule:Day,
  {e6d8323d-57c7-4081-9776-9c43fa0fb121}, !- Handle
  OfficeMedium INFIL_SCH_PNNL_Sat,        !- Name
  {f49e752b-b610-4cc0-b358-600e4d4663a9}, !- Schedule Type Limits Name
  ,                                       !- Interpolate to Timestep
  6,                                      !- Hour 1
  0,                                      !- Minute 1
  1,                                      !- Value Until Time 1
  18,                                     !- Hour 2
  0,                                      !- Minute 2
  0.25,                                   !- Value Until Time 2
  24,                                     !- Hour 3
  0,                                      !- Minute 3
  1;                                      !- Value Until Time 3

OS:Schedule:Day,
  {f70350b5-94ce-48b3-a671-d1739c49e845}, !- Handle
  OfficeMedium INFIL_SCH_PNNL_Default 1,  !- Name
  {f49e752b-b610-4cc0-b358-600e4d4663a9}, !- Schedule Type Limits Name
  ,                                       !- Interpolate to Timestep
  24,                                     !- Hour 1
  0,                                      !- Minute 1
  1;                                      !- Value Until Time 1

OS:Schedule:Day,
  {bda070a4-5220-497a-acf3-8a53f325c5f2}, !- Handle
  OfficeMedium INFIL_SCH_PNNL_Wkdy_SmrDsn 1, !- Name
  {f49e752b-b610-4cc0-b358-600e4d4663a9}, !- Schedule Type Limits Name
  ,                                       !- Interpolate to Timestep
  6,                                      !- Hour 1
  0,                                      !- Minute 1
  1,                                      !- Value Until Time 1
  22,                                     !- Hour 2
  0,                                      !- Minute 2
  0.25,                                   !- Value Until Time 2
  24,                                     !- Hour 3
  0,                                      !- Minute 3
  1;                                      !- Value Until Time 3

OS:Schedule:Day,
  {a54018a8-1fc5-44b5-8d7a-6e04ee76e6f3}, !- Handle
  OfficeMedium INFIL_SCH_PNNL_Sat_WntrDsn 1, !- Name
  {f49e752b-b610-4cc0-b358-600e4d4663a9}, !- Schedule Type Limits Name
  ,                                       !- Interpolate to Timestep
  6,                                      !- Hour 1
  0,                                      !- Minute 1
  1,                                      !- Value Until Time 1
  18,                                     !- Hour 2
  0,                                      !- Minute 2
  0.25,                                   !- Value Until Time 2
  24,                                     !- Hour 3
  0,                                      !- Minute 3
  1;                                      !- Value Until Time 3

OS:Schedule:Rule,
  {24a07897-84a0-44ab-acae-430f5f373138}, !- Handle
  Schedule Rule 1,                        !- Name
  {a2e837a7-0399-4115-a9a1-67e528149d98}, !- Schedule Ruleset Name
  0,                                      !- Rule Order
  {93f8fcf8-aa1d-46d5-ba04-c19c3df44d44}, !- Day Schedule Name
  No,                                     !- Apply Sunday
  Yes,                                    !- Apply Monday
  Yes,                                    !- Apply Tuesday
  Yes,                                    !- Apply Wednesday
  Yes,                                    !- Apply Thursday
  Yes,                                    !- Apply Friday
  No,                                     !- Apply Saturday
  DateRange,                              !- Date Specification Type
  1,                                      !- Start Month
  1,                                      !- Start Day
  12,                                     !- End Month
  31;                                     !- End Day

OS:Schedule:Day,
  {93f8fcf8-aa1d-46d5-ba04-c19c3df44d44}, !- Handle
  Schedule Day 2,                         !- Name
  {f49e752b-b610-4cc0-b358-600e4d4663a9}, !- Schedule Type Limits Name
  ,                                       !- Interpolate to Timestep
  6,                                      !- Hour 1
  0,                                      !- Minute 1
  1,                                      !- Value Until Time 1
  22,                                     !- Hour 2
  0,                                      !- Minute 2
  0.25,                                   !- Value Until Time 2
  24,                                     !- Hour 3
  0,                                      !- Minute 3
  1;                                      !- Value Until Time 3

OS:YearDescription,
  {ebdaeb6f-37ab-40fc-a018-54f1643ce15a}, !- Handle
  ,                                       !- Calendar Year
  Sunday;                                 !- Day of Week for Start Day

OS:Schedule:Rule,
  {4c255d20-170f-4803-85d1-cb32ff849d9d}, !- Handle
  Schedule Rule 2,                        !- Name
  {a2e837a7-0399-4115-a9a1-67e528149d98}, !- Schedule Ruleset Name
  1,                                      !- Rule Order
  {cf27dae8-b93e-494a-9825-afd5f1c97c08}, !- Day Schedule Name
  No,                                     !- Apply Sunday
  No,                                     !- Apply Monday
  No,                                     !- Apply Tuesday
  No,                                     !- Apply Wednesday
  No,                                     !- Apply Thursday
  No,                                     !- Apply Friday
  Yes,                                    !- Apply Saturday
  DateRange,                              !- Date Specification Type
  1,                                      !- Start Month
  1,                                      !- Start Day
  12,                                     !- End Month
  31;                                     !- End Day

OS:Schedule:Day,
  {cf27dae8-b93e-494a-9825-afd5f1c97c08}, !- Handle
  Schedule Day 3,                         !- Name
  {f49e752b-b610-4cc0-b358-600e4d4663a9}, !- Schedule Type Limits Name
  ,                                       !- Interpolate to Timestep
  6,                                      !- Hour 1
  0,                                      !- Minute 1
  1,                                      !- Value Until Time 1
  18,                                     !- Hour 2
  0,                                      !- Minute 2
  0.25,                                   !- Value Until Time 2
  24,                                     !- Hour 3
  0,                                      !- Minute 3
  1;                                      !- Value Until Time 3

OS:Schedule:Ruleset,
  {daf7e6bf-b62d-4c54-9ea3-ad936552ecc6}, !- Handle
  Generic Office Heating,                 !- Name
  {224a74c6-cd32-423a-8467-cd6b5038350d}, !- Schedule Type Limits Name
  {214dd37d-a4da-4aac-8057-01f46bb81682}, !- Default Day Schedule Name
  {13e1bbec-181e-4403-a7f5-73ab80540949}, !- Summer Design Day Schedule Name
  {9a65c111-9952-494e-8951-abce87c77b70}, !- Winter Design Day Schedule Name
  {c86e9715-9d8e-44cb-930f-456fc994d781}; !- Holiday Schedule Name

OS:Schedule:Day,
  {214dd37d-a4da-4aac-8057-01f46bb81682}, !- Handle
  Schedule Day 4,                         !- Name
  {224a74c6-cd32-423a-8467-cd6b5038350d}, !- Schedule Type Limits Name
  ,                                       !- Interpolate to Timestep
  24,                                     !- Hour 1
  0,                                      !- Minute 1
  15.6;                                   !- Value Until Time 1

OS:Schedule:Day,
  {7a701725-ceb5-44eb-86b5-cee70e322b60}, !- Handle
  OfficeMedium HTGSETP_SCH_YES_OPTIMUM_Default, !- Name
  {224a74c6-cd32-423a-8467-cd6b5038350d}, !- Schedule Type Limits Name
  ,                                       !- Interpolate to Timestep
  24,                                     !- Hour 1
  0,                                      !- Minute 1
  15.6;                                   !- Value Until Time 1

OS:Schedule:Day,
  {48ac5dc7-fb57-41ab-9ab8-a88745e0eb6f}, !- Handle
  OfficeMedium HTGSETP_SCH_YES_OPTIMUM_Default_SmrDsn, !- Name
  {224a74c6-cd32-423a-8467-cd6b5038350d}, !- Schedule Type Limits Name
  ,                                       !- Interpolate to Timestep
  24,                                     !- Hour 1
  0,                                      !- Minute 1
  15.6;                                   !- Value Until Time 1

OS:Schedule:Day,
  {26690070-0ca4-4d73-9068-1b30cfc003a6}, !- Handle
  OfficeMedium HTGSETP_SCH_YES_OPTIMUM_WntrDsn, !- Name
  {224a74c6-cd32-423a-8467-cd6b5038350d}, !- Schedule Type Limits Name
  ,                                       !- Interpolate to Timestep
  5,                                      !- Hour 1
  0,                                      !- Minute 1
  15.6,                                   !- Value Until Time 1
  6,                                      !- Hour 2
  0,                                      !- Minute 2
  17.6,                                   !- Value Until Time 2
  7,                                      !- Hour 3
  0,                                      !- Minute 3
  19.6,                                   !- Value Until Time 3
  22,                                     !- Hour 4
  0,                                      !- Minute 4
  21,                                     !- Value Until Time 4
  24,                                     !- Hour 5
  0,                                      !- Minute 5
  15.6;                                   !- Value Until Time 5

OS:Schedule:Day,
  {c8b0629b-e194-430c-a7ac-426c6f3841f6}, !- Handle
  OfficeMedium HTGSETP_SCH_YES_OPTIMUM_Wkdy, !- Name
  {224a74c6-cd32-423a-8467-cd6b5038350d}, !- Schedule Type Limits Name
  ,                                       !- Interpolate to Timestep
  5,                                      !- Hour 1
  0,                                      !- Minute 1
  15.6,                                   !- Value Until Time 1
  6,                                      !- Hour 2
  0,                                      !- Minute 2
  17.8,                                   !- Value Until Time 2
  7,                                      !- Hour 3
  0,                                      !- Minute 3
  20,                                     !- Value Until Time 3
  22,                                     !- Hour 4
  0,                                      !- Minute 4
  21,                                     !- Value Until Time 4
  24,                                     !- Hour 5
  0,                                      !- Minute 5
  15.6;                                   !- Value Until Time 5

OS:Schedule:Day,
  {6189a728-8654-41c2-8006-27dde76e4090}, !- Handle
  OfficeMedium HTGSETP_SCH_YES_OPTIMUM_Sat, !- Name
  {224a74c6-cd32-423a-8467-cd6b5038350d}, !- Schedule Type Limits Name
  ,                                       !- Interpolate to Timestep
  5,                                      !- Hour 1
  0,                                      !- Minute 1
  15.6,                                   !- Value Until Time 1
  6,                                      !- Hour 2
  0,                                      !- Minute 2
  17.8,                                   !- Value Until Time 2
  7,                                      !- Hour 3
  0,                                      !- Minute 3
  20,                                     !- Value Until Time 3
  17,                                     !- Hour 4
  0,                                      !- Minute 4
  21,                                     !- Value Until Time 4
  24,                                     !- Hour 5
  0,                                      !- Minute 5
  15.6;                                   !- Value Until Time 5

OS:Schedule:Day,
  {c86e9715-9d8e-44cb-930f-456fc994d781}, !- Handle
  OfficeMedium HTGSETP_SCH_YES_OPTIMUM_Default 1, !- Name
  {224a74c6-cd32-423a-8467-cd6b5038350d}, !- Schedule Type Limits Name
  ,                                       !- Interpolate to Timestep
  24,                                     !- Hour 1
  0,                                      !- Minute 1
  15.6;                                   !- Value Until Time 1

OS:Schedule:Day,
  {13e1bbec-181e-4403-a7f5-73ab80540949}, !- Handle
  OfficeMedium HTGSETP_SCH_YES_OPTIMUM_Default_SmrDsn 1, !- Name
  {224a74c6-cd32-423a-8467-cd6b5038350d}, !- Schedule Type Limits Name
  ,                                       !- Interpolate to Timestep
  24,                                     !- Hour 1
  0,                                      !- Minute 1
  15.6;                                   !- Value Until Time 1

OS:Schedule:Day,
  {9a65c111-9952-494e-8951-abce87c77b70}, !- Handle
  OfficeMedium HTGSETP_SCH_YES_OPTIMUM_WntrDsn 1, !- Name
  {224a74c6-cd32-423a-8467-cd6b5038350d}, !- Schedule Type Limits Name
  ,                                       !- Interpolate to Timestep
  5,                                      !- Hour 1
  0,                                      !- Minute 1
  15.6,                                   !- Value Until Time 1
  6,                                      !- Hour 2
  0,                                      !- Minute 2
  17.6,                                   !- Value Until Time 2
  7,                                      !- Hour 3
  0,                                      !- Minute 3
  19.6,                                   !- Value Until Time 3
  22,                                     !- Hour 4
  0,                                      !- Minute 4
  21,                                     !- Value Until Time 4
  24,                                     !- Hour 5
  0,                                      !- Minute 5
  15.6;                                   !- Value Until Time 5

OS:Schedule:Rule,
  {a0a78a24-5083-48b3-bbf8-f194000f339c}, !- Handle
  Schedule Rule 3,                        !- Name
  {daf7e6bf-b62d-4c54-9ea3-ad936552ecc6}, !- Schedule Ruleset Name
  0,                                      !- Rule Order
  {4d58e51b-a763-4987-8adb-0ee443a767dc}, !- Day Schedule Name
  No,                                     !- Apply Sunday
  Yes,                                    !- Apply Monday
  Yes,                                    !- Apply Tuesday
  Yes,                                    !- Apply Wednesday
  Yes,                                    !- Apply Thursday
  Yes,                                    !- Apply Friday
  No,                                     !- Apply Saturday
  DateRange,                              !- Date Specification Type
  1,                                      !- Start Month
  1,                                      !- Start Day
  12,                                     !- End Month
  31;                                     !- End Day

OS:Schedule:Day,
  {4d58e51b-a763-4987-8adb-0ee443a767dc}, !- Handle
  Schedule Day 5,                         !- Name
  {224a74c6-cd32-423a-8467-cd6b5038350d}, !- Schedule Type Limits Name
  ,                                       !- Interpolate to Timestep
  5,                                      !- Hour 1
  0,                                      !- Minute 1
  15.6,                                   !- Value Until Time 1
  6,                                      !- Hour 2
  0,                                      !- Minute 2
  17.8,                                   !- Value Until Time 2
  7,                                      !- Hour 3
  0,                                      !- Minute 3
  20,                                     !- Value Until Time 3
  22,                                     !- Hour 4
  0,                                      !- Minute 4
  21,                                     !- Value Until Time 4
  24,                                     !- Hour 5
  0,                                      !- Minute 5
  15.6;                                   !- Value Until Time 5

OS:Schedule:Rule,
  {5e6bbad1-ebbf-4f48-a0ab-4200fb7445d6}, !- Handle
  Schedule Rule 4,                        !- Name
  {daf7e6bf-b62d-4c54-9ea3-ad936552ecc6}, !- Schedule Ruleset Name
  1,                                      !- Rule Order
  {64e7f68c-ef7d-41e3-bf0e-e0d6e2fc6124}, !- Day Schedule Name
  No,                                     !- Apply Sunday
  No,                                     !- Apply Monday
  No,                                     !- Apply Tuesday
  No,                                     !- Apply Wednesday
  No,                                     !- Apply Thursday
  No,                                     !- Apply Friday
  Yes,                                    !- Apply Saturday
  DateRange,                              !- Date Specification Type
  1,                                      !- Start Month
  1,                                      !- Start Day
  12,                                     !- End Month
  31;                                     !- End Day

OS:Schedule:Day,
  {64e7f68c-ef7d-41e3-bf0e-e0d6e2fc6124}, !- Handle
  Schedule Day 6,                         !- Name
  {224a74c6-cd32-423a-8467-cd6b5038350d}, !- Schedule Type Limits Name
  ,                                       !- Interpolate to Timestep
  5,                                      !- Hour 1
  0,                                      !- Minute 1
  15.6,                                   !- Value Until Time 1
  6,                                      !- Hour 2
  0,                                      !- Minute 2
  17.8,                                   !- Value Until Time 2
  7,                                      !- Hour 3
  0,                                      !- Minute 3
  20,                                     !- Value Until Time 3
  17,                                     !- Hour 4
  0,                                      !- Minute 4
  21,                                     !- Value Until Time 4
  24,                                     !- Hour 5
  0,                                      !- Minute 5
  15.6;                                   !- Value Until Time 5

OS:Schedule:Ruleset,
  {f04bf168-cec9-42a8-bc1e-4c69ca90a8e3}, !- Handle
  Generic Office Equipment,               !- Name
  {f49e752b-b610-4cc0-b358-600e4d4663a9}, !- Schedule Type Limits Name
  {6d5fbbb9-62fd-4e88-b7b8-ec3601d0f97b}, !- Default Day Schedule Name
  {bfb8df0c-679b-4fee-a282-66eab1792374}, !- Summer Design Day Schedule Name
  {11ec872c-281f-4512-8e75-5316b2f4fc55}, !- Winter Design Day Schedule Name
  {cab2f818-7472-4f84-9687-cc58e8a61505}; !- Holiday Schedule Name

OS:Schedule:Day,
  {6d5fbbb9-62fd-4e88-b7b8-ec3601d0f97b}, !- Handle
  Schedule Day 7,                         !- Name
  {f49e752b-b610-4cc0-b358-600e4d4663a9}, !- Schedule Type Limits Name
  ,                                       !- Interpolate to Timestep