
OS:Version,
  {d6492d45-fd2b-4dfc-adb6-388005024e7f}, !- Handle
  3.0.1;                                  !- Version Identifier

OS:Building,
  {a6cdc47f-1cd1-48a0-8e3e-1e3844928dd8}, !- Handle
  Building 1,                             !- Name
  ,                                       !- Building Sector Type
  -0,                                     !- North Axis {deg}
  ,                                       !- Nominal Floor to Floor Height {m}
  ,                                       !- Space Type Name
  {0f475f64-545f-436e-b6cf-b86012b4b438}, !- Default Construction Set Name
  ,                                       !- Default Schedule Set Name
  ,                                       !- Standards Number of Stories
  ,                                       !- Standards Number of Above Ground Stories
  ,                                       !- Standards Template
  MediumOffice;                           !- Standards Building Type

OS:Facility,
  {86731f5a-768e-4c98-9095-3765cdeef953}; !- Handle

OS:Site,
  {e99c1c83-49bb-4cdc-95a0-7020cba85534}, !- Handle
  Site 1,                                 !- Name
  ,                                       !- Latitude {deg}
  ,                                       !- Longitude {deg}
  ,                                       !- Time Zone {hr}
  ,                                       !- Elevation {m}
  City;                                   !- Terrain

OS:SimulationControl,
  {7366d14e-39f3-48b1-bc4e-8aeea4401515}, !- Handle
  Yes,                                    !- Do Zone Sizing Calculation
  Yes,                                    !- Do System Sizing Calculation
  Yes,                                    !- Do Plant Sizing Calculation
  No,                                     !- Run Simulation for Sizing Periods
  Yes,                                    !- Run Simulation for Weather File Run Periods
  ,                                       !- Loads Convergence Tolerance Value {W}
  ,                                       !- Temperature Convergence Tolerance Value {deltaC}
  FullExteriorWithReflections;            !- Solar Distribution

OS:Sizing:Parameters,
  {387cc1ae-6a5a-429c-a64b-d87ca0a7424f}, !- Handle
  1.25,                                   !- Heating Sizing Factor
  1.15;                                   !- Cooling Sizing Factor

OS:Timestep,
  {a2c6dd49-a3c8-40c5-9959-9ca9cb1928ec}, !- Handle
  6;                                      !- Number of Timesteps per Hour

OS:ShadowCalculation,
  {a4400179-4f21-4263-a798-4d718c327b6b}, !- Handle
  PolygonClipping,                        !- Shading Calculation Method
  Periodic,                               !- Shading Calculation Update Frequency Method
  30,                                     !- Shading Calculation Update Frequency
  15000,                                  !- Maximum Figures in Shadow Overlap Calculations
  ,                                       !- Polygon Clipping Algorithm
  512,                                    !- Pixel Counting Resolution
  ,                                       !- Sky Diffuse Modeling Algorithm
  No,                                     !- Output External Shading Calculation Results
  No,                                     !- Disable Self-Shading Within Shading Zone Groups
  No;                                     !- Disable Self-Shading From Shading Zone Groups to Other Zones

OS:HeatBalanceAlgorithm,
  {8dbcef7d-66bd-4b7b-94ed-0b9b9d910500}, !- Handle
  ConductionTransferFunction,             !- Algorithm
  200;                                    !- Surface Temperature Upper Limit {C}

OS:RunPeriod,
  {c961b66f-864f-448e-96e2-3d5fdbb94e62}, !- Handle
  Run Period 1,                           !- Name
  1,                                      !- Begin Month
  1,                                      !- Begin Day of Month
  1,                                      !- End Month
  31,                                     !- End Day of Month
  ,                                       !- Use Weather File Holidays and Special Days
  ,                                       !- Use Weather File Daylight Saving Period
  ,                                       !- Apply Weekend Holiday Rule
  ,                                       !- Use Weather File Rain Indicators
  ,                                       !- Use Weather File Snow Indicators
  ;                                       !- Number of Times Runperiod to be Repeated

OS:LifeCycleCost:Parameters,
  {cc6d83bd-34bf-4fd2-bd5c-12cb745d6ff5}, !- Handle
  ,                                       !- Analysis Type
  ,                                       !- Discounting Convention
  ,                                       !- Inflation Approach
  ,                                       !- Real Discount Rate
  ,                                       !- Nominal Discount Rate
  ,                                       !- Inflation
  ,                                       !- Base Date Month
  ,                                       !- Base Date Year
  ,                                       !- Service Date Month
  ,                                       !- Service Date Year
  ;                                       !- Length of Study Period in Years

OS:WeatherFile,
  {b09fdd43-8c80-425f-9294-704e370f41fc}, !- Handle
  Boston Logan IntL Arpt,                 !- City
  MA,                                     !- State Province Region
  USA,                                    !- Country
  TMY3,                                   !- Data Source
  725090,                                 !- WMO Number
  42.37,                                  !- Latitude {deg}
  -71.02,                                 !- Longitude {deg}
  -5,                                     !- Time Zone {hr}
  6,                                      !- Elevation {m}
  C:/Users/Administrator/ladybug_tools/resources/weather/USA_MA_Boston-Logan.Intl.AP.725090_TMY3/USA_MA_Boston-Logan.Intl.AP.725090_TMY3.epw, !- Url
  B65824C3;                               !- Checksum

OS:ScheduleTypeLimits,
  {e857d6f0-a72a-4239-8858-a85ad94ec826}, !- Handle
  Temperature,                            !- Name
  -273.15,                                !- Lower Limit Value
  ,                                       !- Upper Limit Value
  Continuous,                             !- Numeric Type
  Temperature;                            !- Unit Type

OS:ScheduleTypeLimits,
  {f127441e-3721-4a19-a200-52a60a6ad3a0}, !- Handle
  Activity Level,                         !- Name
  0,                                      !- Lower Limit Value
  ,                                       !- Upper Limit Value
  Continuous,                             !- Numeric Type
  ActivityLevel;                          !- Unit Type

OS:ScheduleTypeLimits,
  {66872fa9-fa18-4c61-b8dd-c348745a03cf}, !- Handle
  Fractional,                             !- Name
  0,                                      !- Lower Limit Value
  1,                                      !- Upper Limit Value
  Continuous,                             !- Numeric Type
  Dimensionless;                          !- Unit Type

OS:Schedule:Ruleset,
  {6a758101-a011-4519-8f2c-ff7ce7f5bb38}, !- Handle
  Generic Office Infiltration,            !- Name
  {66872fa9-fa18-4c61-b8dd-c348745a03cf}, !- Schedule Type Limits Name
  {3a094d50-c0ef-4f40-b109-b2e9c1ddce80}, !- Default Day Schedule Name
  {52d5bee6-294b-4f93-b692-344446b2c6ee}, !- Summer Design Day Schedule Name
  {5deec920-4d5e-4d60-a7b4-b3b48124d713}, !- Winter Design Day Schedule Name
  {b4f201ea-ed10-4f59-8d3d-cc85d3ba0ac9}; !- Holiday Schedule Name

OS:Schedule:Day,
  {3a094d50-c0ef-4f40-b109-b2e9c1ddce80}, !- Handle
  Schedule Day 1,                         !- Name
  {66872fa9-fa18-4c61-b8dd-c348745a03cf}, !- Schedule Type Limits Name
  ,                                       !- Interpolate to Timestep
  24,                                     !- Hour 1
  0,                                      !- Minute 1
  1;                                      !- Value Until Time 1

OS:Schedule:Day,
  {e8f4cd4d-8613-4e96-8d44-28215d5e9b0c}, !- Handle
  OfficeMedium INFIL_SCH_PNNL_Default,    !- Name
  {66872fa9-fa18-4c61-b8dd-c348745a03cf}, !- Schedule Type Limits Name
  ,                                       !- Interpolate to Timestep
  24,                                     !- Hour 1
  0,                                      !- Minute 1
  1;                                      !- Value Until Time 1

OS:Schedule:Day,
  {5a3f9759-feb8-47a4-894b-76ffc74488ea}, !- Handle
  OfficeMedium INFIL_SCH_PNNL_Wkdy_SmrDsn, !- Name
  {66872fa9-fa18-4c61-b8dd-c348745a03cf}, !- Schedule Type Limits Name
  ,                                       !- Interpolate to Timestep
  6,                                      !- Hour 1
  0,                                      !- Minute 1
  1,                                      !- Value Until Time 1
  22,                                     !- Hour 2
  0,                                      !- Minute 2
  0.25,                                   !- Value Until Time 2
  24,                                     !- Hour 3
  0,                                      !- Minute 3
  1;                                      !- Value Until Time 3

OS:Schedule:Day,
  {0ef7132e-a79a-4c59-9ae6-0e7574b4494e}, !- Handle
  OfficeMedium INFIL_SCH_PNNL_Sat_WntrDsn, !- Name
  {66872fa9-fa18-4c61-b8dd-c348745a03cf}, !- Schedule Type Limits Name
  ,                                       !- Interpolate to Timestep
  6,                                      !- Hour 1
  0,                                      !- Minute 1
  1,                                      !- Value Until Time 1
  18,                                     !- Hour 2
  0,                                      !- Minute 2
  0.25,                                   !- Value Until Time 2
  24,                                     !- Hour 3
  0,                                      !- Minute 3
  1;                                      !- Value Until Time 3

OS:Schedule:Day,
  {bec53f54-b19f-47ea-b9a3-25d8a85111ae}, !- Handle
  OfficeMedium INFIL_SCH_PNNL_Wkdy,       !- Name
  {66872fa9-fa18-4c61-b8dd-c348745a03cf}, !- Schedule Type Limits Name
  ,                                       !- Interpolate to Timestep
  6,                                      !- Hour 1
  0,                                      !- Minute 1
  1,                                      !- Value Until Time 1
  22,                                     !- Hour 2
  0,                                      !- Minute 2
  0.25,                                   !- Value Until Time 2
  24,                                     !- Hour 3
  0,                                      !- Minute 3
  1;                                      !- Value Until Time 3

OS:Schedule:Day,
  {e2ede98b-545f-4056-8779-c45cf06d90ee}, !- Handle
  OfficeMedium INFIL_SCH_PNNL_Sat,        !- Name
  {66872fa9-fa18-4c61-b8dd-c348745a03cf}, !- Schedule Type Limits Name
  ,                                       !- Interpolate to Timestep
  6,                                      !- Hour 1
  0,                                      !- Minute 1
  1,                                      !- Value Until Time 1
  18,                                     !- Hour 2
  0,                                      !- Minute 2
  0.25,                                   !- Value Until Time 2
  24,                                     !- Hour 3
  0,                                      !- Minute 3
  1;                                      !- Value Until Time 3

OS:Schedule:Day,
  {b4f201ea-ed10-4f59-8d3d-cc85d3ba0ac9}, !- Handle
  OfficeMedium INFIL_SCH_PNNL_Default 1,  !- Name
  {66872fa9-fa18-4c61-b8dd-c348745a03cf}, !- Schedule Type Limits Name
  ,                                       !- Interpolate to Timestep
  24,                                     !- Hour 1
  0,                                      !- Minute 1
  1;                                      !- Value Until Time 1

OS:Schedule:Day,
  {52d5bee6-294b-4f93-b692-344446b2c6ee}, !- Handle
  OfficeMedium INFIL_SCH_PNNL_Wkdy_SmrDsn 1, !- Name
  {66872fa9-fa18-4c61-b8dd-c348745a03cf}, !- Schedule Type Limits Name
  ,                                       !- Interpolate to Timestep
  6,                                      !- Hour 1
  0,                                      !- Minute 1
  1,                                      !- Value Until Time 1
  22,                                     !- Hour 2
  0,                                      !- Minute 2
  0.25,                                   !- Value Until Time 2
  24,                                     !- Hour 3
  0,                                      !- Minute 3
  1;                                      !- Value Until Time 3

OS:Schedule:Day,
  {5deec920-4d5e-4d60-a7b4-b3b48124d713}, !- Handle
  OfficeMedium INFIL_SCH_PNNL_Sat_WntrDsn 1, !- Name
  {66872fa9-fa18-4c61-b8dd-c348745a03cf}, !- Schedule Type Limits Name
  ,                                       !- Interpolate to Timestep
  6,                                      !- Hour 1
  0,                                      !- Minute 1
  1,                                      !- Value Until Time 1
  18,                                     !- Hour 2
  0,                                      !- Minute 2
  0.25,                                   !- Value Until Time 2
  24,                                     !- Hour 3
  0,                                      !- Minute 3
  1;                                      !- Value Until Time 3

OS:Schedule:Rule,
  {9c4d99a2-a7db-4675-ba1e-6401b928c0ee}, !- Handle
  Schedule Rule 1,                        !- Name
  {6a758101-a011-4519-8f2c-ff7ce7f5bb38}, !- Schedule Ruleset Name
  0,                                      !- Rule Order
  {66b00fb4-01b2-4758-80fe-93d768d2d5f4}, !- Day Schedule Name
  No,                                     !- Apply Sunday
  Yes,                                    !- Apply Monday
  Yes,                                    !- Apply Tuesday
  Yes,                                    !- Apply Wednesday
  Yes,                                    !- Apply Thursday
  Yes,                                    !- Apply Friday
  No,                                     !- Apply Saturday
  DateRange,                              !- Date Specification Type
  1,                                      !- Start Month
  1,                                      !- Start Day
  12,                                     !- End Month
  31;                                     !- End Day

OS:Schedule:Day,
  {66b00fb4-01b2-4758-80fe-93d768d2d5f4}, !- Handle
  Schedule Day 2,                         !- Name
  {66872fa9-fa18-4c61-b8dd-c348745a03cf}, !- Schedule Type Limits Name
  ,                                       !- Interpolate to Timestep
  6,                                      !- Hour 1
  0,                                      !- Minute 1
  1,                                      !- Value Until Time 1
  22,                                     !- Hour 2
  0,                                      !- Minute 2
  0.25,                                   !- Value Until Time 2
  24,                                     !- Hour 3
  0,                                      !- Minute 3
  1;                                      !- Value Until Time 3

OS:YearDescription,
  {2374569c-d8a2-42a4-95c7-618a31f6e43f}, !- Handle
  ,                                       !- Calendar Year
  Sunday;                                 !- Day of Week for Start Day

OS:Schedule:Rule,
  {0100ba4c-a985-40e8-a863-983b4fb63966}, !- Handle
  Schedule Rule 2,                        !- Name
  {6a758101-a011-4519-8f2c-ff7ce7f5bb38}, !- Schedule Ruleset Name
  1,                                      !- Rule Order
  {095dfb53-760f-454a-bd44-55e8fb8147c4}, !- Day Schedule Name
  No,                                     !- Apply Sunday
  No,                                     !- Apply Monday
  No,                                     !- Apply Tuesday
  No,                                     !- Apply Wednesday
  No,                                     !- Apply Thursday
  No,                                     !- Apply Friday
  Yes,                                    !- Apply Saturday
  DateRange,                              !- Date Specification Type
  1,                                      !- Start Month
  1,                                      !- Start Day
  12,                                     !- End Month
  31;                                     !- End Day

OS:Schedule:Day,
  {095dfb53-760f-454a-bd44-55e8fb8147c4}, !- Handle
  Schedule Day 3,                         !- Name
  {66872fa9-fa18-4c61-b8dd-c348745a03cf}, !- Schedule Type Limits Name
  ,                                       !- Interpolate to Timestep
  6,                                      !- Hour 1
  0,                                      !- Minute 1
  1,                                      !- Value Until Time 1
  18,                                     !- Hour 2
  0,                                      !- Minute 2
  0.25,                                   !- Value Until Time 2
  24,                                     !- Hour 3
  0,                                      !- Minute 3
  1;                                      !- Value Until Time 3

OS:Schedule:Ruleset,
  {e763f691-89ef-485a-81d2-54b5fd3ed867}, !- Handle
  Generic Office Heating,                 !- Name
  {e857d6f0-a72a-4239-8858-a85ad94ec826}, !- Schedule Type Limits Name
  {c5ce80f9-bfe3-4ceb-8cbd-0028a2870f29}, !- Default Day Schedule Name
  {53820082-7bb1-4dd0-b801-f6274bac0ffd}, !- Summer Design Day Schedule Name
  {2f1cef0b-db17-478b-a6f8-c347eb923168}, !- Winter Design Day Schedule Name
  {22b7fb03-33d6-480c-9b35-9e7b049ac9b4}; !- Holiday Schedule Name

OS:Schedule:Day,
  {c5ce80f9-bfe3-4ceb-8cbd-0028a2870f29}, !- Handle
  Schedule Day 4,                         !- Name
  {e857d6f0-a72a-4239-8858-a85ad94ec826}, !- Schedule Type Limits Name
  ,                                       !- Interpolate to Timestep
  24,                                     !- Hour 1
  0,                                      !- Minute 1
  15.6;                                   !- Value Until Time 1

OS:Schedule:Day,
  {8001cb66-2d94-4d5f-917c-3f5448b86592}, !- Handle
  OfficeMedium HTGSETP_SCH_YES_OPTIMUM_Default, !- Name
  {e857d6f0-a72a-4239-8858-a85ad94ec826}, !- Schedule Type Limits Name
  ,                                       !- Interpolate to Timestep
  24,                                     !- Hour 1
  0,                                      !- Minute 1
  15.6;                                   !- Value Until Time 1

OS:Schedule:Day,
  {ff12f634-c216-4156-8c6a-0824e2aae8d6}, !- Handle
  OfficeMedium HTGSETP_SCH_YES_OPTIMUM_Default_SmrDsn, !- Name
  {e857d6f0-a72a-4239-8858-a85ad94ec826}, !- Schedule Type Limits Name
  ,                                       !- Interpolate to Timestep
  24,                                     !- Hour 1
  0,                                      !- Minute 1
  15.6;                                   !- Value Until Time 1

OS:Schedule:Day,
  {2888428b-8ed9-4fec-9e24-a0af6a1325a8}, !- Handle
  OfficeMedium HTGSETP_SCH_YES_OPTIMUM_WntrDsn, !- Name
  {e857d6f0-a72a-4239-8858-a85ad94ec826}, !- Schedule Type Limits Name
  ,                                       !- Interpolate to Timestep
  5,                                      !- Hour 1
  0,                                      !- Minute 1
  15.6,                                   !- Value Until Time 1
  6,                                      !- Hour 2
  0,                                      !- Minute 2
  17.6,                                   !- Value Until Time 2
  7,                                      !- Hour 3
  0,                                      !- Minute 3
  19.6,                                   !- Value Until Time 3
  22,                                     !- Hour 4
  0,                                      !- Minute 4
  21,                                     !- Value Until Time 4
  24,                                     !- Hour 5
  0,                                      !- Minute 5
  15.6;                                   !- Value Until Time 5

OS:Schedule:Day,
  {bea1f28d-5822-40d6-9861-bae5e6300790}, !- Handle
  OfficeMedium HTGSETP_SCH_YES_OPTIMUM_Wkdy, !- Name
  {e857d6f0-a72a-4239-8858-a85ad94ec826}, !- Schedule Type Limits Name
  ,                                       !- Interpolate to Timestep
  5,                                      !- Hour 1
  0,                                      !- Minute 1
  15.6,                                   !- Value Until Time 1
  6,                                      !- Hour 2
  0,                                      !- Minute 2
  17.8,                                   !- Value Until Time 2
  7,                                      !- Hour 3
  0,                                      !- Minute 3
  20,                                     !- Value Until Time 3
  22,                                     !- Hour 4
  0,                                      !- Minute 4
  21,                                     !- Value Until Time 4
  24,                                     !- Hour 5
  0,                                      !- Minute 5
  15.6;                                   !- Value Until Time 5

OS:Schedule:Day,
  {1bb485b6-fedc-4f45-9a44-b1aaa067509e}, !- Handle
  OfficeMedium HTGSETP_SCH_YES_OPTIMUM_Sat, !- Name
  {e857d6f0-a72a-4239-8858-a85ad94ec826}, !- Schedule Type Limits Name
  ,                                       !- Interpolate to Timestep
  5,                                      !- Hour 1
  0,                                      !- Minute 1
  15.6,                                   !- Value Until Time 1
  6,                                      !- Hour 2
  0,                                      !- Minute 2
  17.8,                                   !- Value Until Time 2
  7,                                      !- Hour 3
  0,                                      !- Minute 3
  20,                                     !- Value Until Time 3
  17,                                     !- Hour 4
  0,                                      !- Minute 4
  21,                                     !- Value Until Time 4
  24,                                     !- Hour 5
  0,                                      !- Minute 5
  15.6;                                   !- Value Until Time 5

OS:Schedule:Day,
  {22b7fb03-33d6-480c-9b35-9e7b049ac9b4}, !- Handle
  OfficeMedium HTGSETP_SCH_YES_OPTIMUM_Default 1, !- Name
  {e857d6f0-a72a-4239-8858-a85ad94ec826}, !- Schedule Type Limits Name
  ,                                       !- Interpolate to Timestep
  24,                                     !- Hour 1
  0,                                      !- Minute 1
  15.6;                                   !- Value Until Time 1

OS:Schedule:Day,
  {53820082-7bb1-4dd0-b801-f6274bac0ffd}, !- Handle
  OfficeMedium HTGSETP_SCH_YES_OPTIMUM_Default_SmrDsn 1, !- Name
  {e857d6f0-a72a-4239-8858-a85ad94ec826}, !- Schedule Type Limits Name
  ,                                       !- Interpolate to Timestep
  24,                                     !- Hour 1
  0,                                      !- Minute 1
  15.6;                                   !- Value Until Time 1

OS:Schedule:Day,
  {2f1cef0b-db17-478b-a6f8-c347eb923168}, !- Handle
  OfficeMedium HTGSETP_SCH_YES_OPTIMUM_WntrDsn 1, !- Name
  {e857d6f0-a72a-4239-8858-a85ad94ec826}, !- Schedule Type Limits Name
  ,                                       !- Interpolate to Timestep
  5,                                      !- Hour 1
  0,                                      !- Minute 1
  15.6,                                   !- Value Until Time 1
  6,                                      !- Hour 2
  0,                                      !- Minute 2
  17.6,                                   !- Value Until Time 2
  7,                                      !- Hour 3
  0,                                      !- Minute 3
  19.6,                                   !- Value Until Time 3
  22,                                     !- Hour 4
  0,                                      !- Minute 4
  21,                                     !- Value Until Time 4
  24,                                     !- Hour 5
  0,                                      !- Minute 5
  15.6;                                   !- Value Until Time 5

OS:Schedule:Rule,
  {c9016891-d7ba-4d69-b307-a65d54b57947}, !- Handle
  Schedule Rule 3,                        !- Name
  {e763f691-89ef-485a-81d2-54b5fd3ed867}, !- Schedule Ruleset Name
  0,                                      !- Rule Order
  {256ff497-fce9-4d1a-b8ec-4d7b4c138384}, !- Day Schedule Name
  No,                                     !- Apply Sunday
  Yes,                                    !- Apply Monday
  Yes,                                    !- Apply Tuesday
  Yes,                                    !- Apply Wednesday
  Yes,                                    !- Apply Thursday
  Yes,                                    !- Apply Friday
  No,                                     !- Apply Saturday
  DateRange,                              !- Date Specification Type
  1,                                      !- Start Month
  1,                                      !- Start Day
  12,                                     !- End Month
  31;                                     !- End Day

OS:Schedule:Day,
  {256ff497-fce9-4d1a-b8ec-4d7b4c138384}, !- Handle
  Schedule Day 5,                         !- Name
  {e857d6f0-a72a-4239-8858-a85ad94ec826}, !- Schedule Type Limits Name
  ,                                       !- Interpolate to Timestep
  5,                                      !- Hour 1
  0,                                      !- Minute 1
  15.6,                                   !- Value Until Time 1
  6,                                      !- Hour 2
  0,                                      !- Minute 2
  17.8,                                   !- Value Until Time 2
  7,                                      !- Hour 3
  0,                                      !- Minute 3
  20,                                     !- Value Until Time 3
  22,                                     !- Hour 4
  0,                                      !- Minute 4
  21,                                     !- Value Until Time 4
  24,                                     !- Hour 5
  0,                                      !- Minute 5
  15.6;                                   !- Value Until Time 5

OS:Schedule:Rule,
  {832f6bd7-9491-4a14-86dc-12a97b9b5983}, !- Handle
  Schedule Rule 4,                        !- Name
  {e763f691-89ef-485a-81d2-54b5fd3ed867}, !- Schedule Ruleset Name
  1,                                      !- Rule Order
  {ab16bba3-0c25-4328-b5ae-fdfed256a42d}, !- Day Schedule Name
  No,                                     !- Apply Sunday
  No,                                     !- Apply Monday
  No,                                     !- Apply Tuesday
  No,                                     !- Apply Wednesday
  No,                                     !- Apply Thursday
  No,                                     !- Apply Friday
  Yes,                                    !- Apply Saturday
  DateRange,                              !- Date Specification Type
  1,                                      !- Start Month
  1,                                      !- Start Day
  12,                                     !- End Month
  31;                                     !- End Day

OS:Schedule:Day,
  {ab16bba3-0c25-4328-b5ae-fdfed256a42d}, !- Handle
  Schedule Day 6,                         !- Name
  {e857d6f0-a72a-4239-8858-a85ad94ec826}, !- Schedule Type Limits Name
  ,                                       !- Interpolate to Timestep
  5,                                      !- Hour 1
  0,                                      !- Minute 1
  15.6,                                   !- Value Until Time 1
  6,                                      !- Hour 2
  0,                                      !- Minute 2
  17.8,                                   !- Value Until Time 2
  7,                                      !- Hour 3
  0,                                      !- Minute 3
  20,                                     !- Value Until Time 3
  17,                                     !- Hour 4
  0,                                      !- Minute 4
  21,                                     !- Value Until Time 4
  24,                                     !- Hour 5
  0,                                      !- Minute 5
  15.6;                                   !- Value Until Time 5

OS:Schedule:Ruleset,
  {ba3a6e2a-b1f6-4d86-88c0-cbf1294a2c42}, !- Handle
  Generic Office Equipment,               !- Name
  {66872fa9-fa18-4c61-b8dd-c348745a03cf}, !- Schedule Type Limits Name
  {9ed667e1-cd74-40f3-b518-88e6213dcfb9}, !- Default Day Schedule Name
  {9e112936-8b0e-4e3f-bbee-ce210705dfde}, !- Summer Design Day Schedule Name
  {91b646a3-50e0-4b6c-befd-912c82733dd2}, !- Winter Design Day Schedule Name
  {bc632b4c-27c8-4b3d-8f16-9105539f529a}; !- Holiday Schedule Name

OS:Schedule:Day,
  {9ed667e1-cd74-40f3-b518-88e6213dcfb9}, !- Handle
  Schedule Day 7,                         !- Name
  {66872fa9-fa18-4c61-b8dd-c348745a03cf}, !- Schedule Type Limits Name
  ,                                       !- Interpolate to Timestep